MODEL 1
REMARK VINA RESULT:     0.000      0.000      0.000
REMARK INTER + INTRA:          -1.471
REMARK INTER:                   0.000
REMARK INTRA:                  -1.471
REMARK UNBOUND:                -1.471
REMARK SMILES CCN1CCN(Cc2ccc(Nc3ncc(F)c(-c4cc(F)c5nc(C)n(C(C)C)c5c4)n3)nc2)CC1
REMARK SMILES IDX 34 1 8 2 9 3 35 4 10 5 11 6 12 7 13 9 18 10 33 11 16 12
REMARK SMILES IDX 15 13 14 14 17 15 19 16 21 17 23 18 20 19 24 20 31 21 25 22
REMARK SMILES IDX 27 23 32 24 22 25 26 26 28 27 29 28 30 29 7 30 6 31 5 32
REMARK SMILES IDX 36 33 4 34 37 35 3 36 2 37 1 38
REMARK H PARENT 12 8
ROOT
ATOM      1  N   UNL     1      10.022 -15.994  11.912  1.00  0.00    -0.239 NA
ATOM      2  C   UNL     1      10.501 -14.717   9.915  1.00  0.00    -0.015 A 
ATOM      3  C   UNL     1       9.166 -14.334   9.831  1.00  0.00     0.010 A 
ATOM      4  C   UNL     1      10.874 -15.541  10.966  1.00  0.00     0.118 A 
ATOM      5  C   UNL     1       8.259 -14.782  10.786  1.00  0.00     0.047 A 
ATOM      6  C   UNL     1       8.733 -15.602  11.797  1.00  0.00     0.132 A 
ENDROOT
BRANCH   6   7
ATOM      7  N   UNL     1       7.796 -16.050  12.761  1.00  0.00    -0.309 N 
ATOM      8  H   UNL     1       7.142 -16.749  12.425  1.00  0.00     0.171 HD
BRANCH   7   9
ATOM      9  C   UNL     1       7.590 -15.713  14.108  1.00  0.00     0.229 A 
ATOM     10  C   UNL     1       7.832 -14.219  15.805  1.00  0.00     0.112 A 
ATOM     11  N   UNL     1       8.047 -14.510  14.505  1.00  0.00    -0.210 NA
ATOM     12  C   UNL     1       7.196 -15.071  16.686  1.00  0.00     0.167 A 
ATOM     13  C   UNL     1       6.776 -16.273  16.155  1.00  0.00     0.156 A 
ATOM     14  N   UNL     1       6.957 -16.629  14.867  1.00  0.00    -0.218 NA
ATOM     15  F   UNL     1       6.994 -14.763  17.971  1.00  0.00    -0.203 F 
BRANCH  10  16
ATOM     16  C   UNL     1       8.323 -12.931  16.231  1.00  0.00     0.008 A 
ATOM     17  C   UNL     1       7.866 -10.724  17.150  1.00  0.00     0.151 A 
ATOM     18  C   UNL     1       9.236 -10.427  17.057  1.00  0.00     0.124 A 
ATOM     19  C   UNL     1       7.425 -11.985  16.731  1.00  0.00     0.052 A 
ATOM     20  N   UNL     1       9.918  -9.280  17.396  1.00  0.00    -0.230 NA
ATOM     21  C   UNL     1      10.106 -11.390  16.554  1.00  0.00     0.072 A 
ATOM     22  C   UNL     1      11.175  -9.533  17.108  1.00  0.00     0.107 A 
ATOM     23  N   UNL     1      11.339 -10.791  16.598  1.00  0.00    -0.326 N 
ATOM     24  C   UNL     1       9.690 -12.652  16.131  1.00  0.00     0.039 A 
ATOM     25  F   UNL     1       6.994  -9.827  17.629  1.00  0.00    -0.205 F 
ATOM     26  C   UNL     1      12.308  -8.605  17.294  1.00  0.00     0.088 C 
BRANCH  23  27
ATOM     27  C   UNL     1      12.588 -11.387  16.178  1.00  0.00     0.083 C 
ATOM     28  C   UNL     1      12.611 -11.644  14.670  1.00  0.00     0.031 C 
ATOM     29  C   UNL     1      12.888 -12.672  16.956  1.00  0.00     0.031 C 
ENDBRANCH  23  27
ENDBRANCH  10  16
ENDBRANCH   7   9
ENDBRANCH   6   7
BRANCH   2  30
ATOM     30  C   UNL     1      11.508 -14.253   8.897  1.00  0.00     0.121 C 
BRANCH  30  31
ATOM     31  N   UNL     1      12.624 -13.546   9.520  1.00  0.00    -0.296 NA
ATOM     32  C   UNL     1      13.758 -13.444   8.593  1.00  0.00     0.100 C 
ATOM     33  C   UNL     1      12.210 -12.212   9.972  1.00  0.00     0.100 C 
ATOM     34  C   UNL     1      14.930 -12.699   9.242  1.00  0.00     0.100 C 
ATOM     35  C   UNL     1      13.381 -11.469  10.622  1.00  0.00     0.100 C 
ATOM     36  N   UNL     1      14.515 -11.366   9.694  1.00  0.00    -0.301 NA
BRANCH  36  37
ATOM     37  C   UNL     1      15.632 -10.657  10.316  1.00  0.00     0.081 C 
ATOM     38  C   UNL     1      15.381 -10.429  11.796  1.00  0.00     0.021 C 
ENDBRANCH  36  37
ENDBRANCH  30  31
ENDBRANCH   2  30
TORSDOF 7
ENDMDL
MODEL 2
REMARK VINA RESULT:     0.006      3.610      5.941
REMARK INTER + INTRA:          -1.463
REMARK INTER:                   0.000
REMARK INTRA:                  -1.463
REMARK UNBOUND:                -1.471
REMARK SMILES CCN1CCN(Cc2ccc(Nc3ncc(F)c(-c4cc(F)c5nc(C)n(C(C)C)c5c4)n3)nc2)CC1
REMARK SMILES IDX 34 1 8 2 9 3 35 4 10 5 11 6 12 7 13 9 18 10 33 11 16 12
REMARK SMILES IDX 15 13 14 14 17 15 19 16 21 17 23 18 20 19 24 20 31 21 25 22
REMARK SMILES IDX 27 23 32 24 22 25 26 26 28 27 29 28 30 29 7 30 6 31 5 32
REMARK SMILES IDX 36 33 4 34 37 35 3 36 2 37 1 38
REMARK H PARENT 12 8
ROOT
ATOM      1  N   UNL     1      10.022 -16.008  13.548  1.00  0.00    -0.239 NA
ATOM      2  C   UNL     1      10.666 -15.472  15.816  1.00  0.00    -0.015 A 
ATOM      3  C   UNL     1       9.349 -15.144  16.121  1.00  0.00     0.010 A 
ATOM      4  C   UNL     1      10.948 -15.895  14.526  1.00  0.00     0.118 A 
ATOM      5  C   UNL     1       8.368 -15.246  15.140  1.00  0.00     0.047 A 
ATOM      6  C   UNL     1       8.753 -15.680  13.881  1.00  0.00     0.132 A 
ENDROOT
BRANCH   6   7
ATOM      7  N   UNL     1       7.742 -15.778  12.892  1.00  0.00    -0.309 N 
ATOM      8  H   UNL     1       7.129 -16.580  12.991  1.00  0.00     0.171 HD
BRANCH   7   9
ATOM      9  C   UNL     1       7.417 -14.975  11.788  1.00  0.00     0.229 A 
ATOM     10  C   UNL     1       7.510 -12.953  10.751  1.00  0.00     0.112 A 
ATOM     11  N   UNL     1       7.839 -13.696  11.828  1.00  0.00    -0.210 NA
ATOM     12  C   UNL     1       6.793 -13.439   9.675  1.00  0.00     0.167 A 
ATOM     13  C   UNL     1       6.419 -14.764   9.756  1.00  0.00     0.156 A 
ATOM     14  N   UNL     1       6.715 -15.564  10.801  1.00  0.00    -0.218 NA
ATOM     15  F   UNL     1       6.476 -12.685   8.617  1.00  0.00    -0.203 F 
BRANCH  10  16
ATOM     16  C   UNL     1       7.961 -11.584  10.794  1.00  0.00     0.008 A 
ATOM     17  C   UNL     1       7.423  -9.209  10.834  1.00  0.00     0.151 A 
ATOM     18  C   UNL     1       8.798  -8.923  10.870  1.00  0.00     0.124 A 
ATOM     19  C   UNL     1       7.020 -10.550  10.795  1.00  0.00     0.052 A 
ATOM     20  N   UNL     1       9.447  -7.709  10.912  1.00  0.00    -0.230 NA
ATOM     21  C   UNL     1       9.710  -9.973  10.867  1.00  0.00     0.072 A 
ATOM     22  C   UNL     1      10.727  -8.009  10.933  1.00  0.00     0.107 A 
ATOM     23  N   UNL     1      10.937  -9.360  10.908  1.00  0.00    -0.326 N 
ATOM     24  C   UNL     1       9.333 -11.316  10.830  1.00  0.00     0.039 A 
ATOM     25  F   UNL     1       6.510  -8.229  10.836  1.00  0.00    -0.205 F 
ATOM     26  C   UNL     1      11.841  -7.041  10.980  1.00  0.00     0.088 C 
BRANCH  23  27
ATOM     27  C   UNL     1      12.220 -10.026  10.922  1.00  0.00     0.083 C 
ATOM     28  C   UNL     1      12.409 -10.909   9.686  1.00  0.00     0.031 C 
ATOM     29  C   UNL     1      12.420 -10.835  12.207  1.00  0.00     0.031 C 
ENDBRANCH  23  27
ENDBRANCH  10  16
ENDBRANCH   7   9
ENDBRANCH   6   7
BRANCH   2  30
ATOM     30  C   UNL     1      11.752 -15.370  16.853  1.00  0.00     0.121 C 
BRANCH  30  31
ATOM     31  N   UNL     1      12.836 -14.491  16.422  1.00  0.00    -0.296 NA
ATOM     32  C   UNL     1      12.422 -13.084  16.484  1.00  0.00     0.100 C 
ATOM     33  C   UNL     1      14.039 -14.708  17.234  1.00  0.00     0.100 C 
ATOM     34  C   UNL     1      13.560 -12.159  16.035  1.00  0.00     0.100 C 
ATOM     35  C   UNL     1      15.176 -13.784  16.785  1.00  0.00     0.100 C 
ATOM     36  N   UNL     1      14.762 -12.377  16.848  1.00  0.00    -0.301 NA
BRANCH  36  37
ATOM     37  C   UNL     1      15.847 -11.496  16.418  1.00  0.00     0.081 C 
ATOM     38  C   UNL     1      15.508 -10.812  15.105  1.00  0.00     0.021 C 
ENDBRANCH  36  37
ENDBRANCH  30  31
ENDBRANCH   2  30
TORSDOF 7
ENDMDL
MODEL 3
REMARK VINA RESULT:     0.006      3.912      7.235
REMARK INTER + INTRA:          -1.463
REMARK INTER:                   0.000
REMARK INTRA:                  -1.463
REMARK UNBOUND:                -1.471
REMARK SMILES CCN1CCN(Cc2ccc(Nc3ncc(F)c(-c4cc(F)c5nc(C)n(C(C)C)c5c4)n3)nc2)CC1
REMARK SMILES IDX 34 1 8 2 9 3 35 4 10 5 11 6 12 7 13 9 18 10 33 11 16 12
REMARK SMILES IDX 15 13 14 14 17 15 19 16 21 17 23 18 20 19 24 20 31 21 25 22
REMARK SMILES IDX 27 23 32 24 22 25 26 26 28 27 29 28 30 29 7 30 6 31 5 32
REMARK SMILES IDX 36 33 4 34 37 35 3 36 2 37 1 38
REMARK H PARENT 12 8
ROOT
ATOM      1  N   UNL     1       6.345 -10.741  12.191  1.00  0.00    -0.239 NA
ATOM      2  C   UNL     1       7.404  -8.611  12.628  1.00  0.00    -0.015 A 
ATOM      3  C   UNL     1       7.802  -8.528  11.297  1.00  0.00     0.010 A 
ATOM      4  C   UNL     1       6.683  -9.728  13.021  1.00  0.00     0.118 A 
ATOM      5  C   UNL     1       7.474  -9.552  10.414  1.00  0.00     0.047 A 
ATOM      6  C   UNL     1       6.751 -10.626  10.907  1.00  0.00     0.132 A 
ENDROOT
BRANCH   6   7
ATOM      7  N   UNL     1       6.425 -11.661   9.995  1.00  0.00    -0.309 N 
ATOM      8  H   UNL     1       5.708 -11.420   9.318  1.00  0.00     0.171 HD
BRANCH   7   9
ATOM      9  C   UNL     1       6.903 -12.971   9.840  1.00  0.00     0.229 A 
ATOM     10  C   UNL     1       8.566 -14.491  10.149  1.00  0.00     0.112 A 
ATOM     11  N   UNL     1       8.138 -13.222  10.314  1.00  0.00    -0.210 NA
ATOM     12  C   UNL     1       7.817 -15.479   9.542  1.00  0.00     0.167 A 
ATOM     13  C   UNL     1       6.568 -15.094   9.099  1.00  0.00     0.156 A 
ATOM     14  N   UNL     1       6.078 -13.845   9.232  1.00  0.00    -0.218 NA
ATOM     15  F   UNL     1       8.260 -16.731   9.388  1.00  0.00    -0.203 F 
BRANCH  10  16
ATOM     16  C   UNL     1       9.890 -14.759  10.657  1.00  0.00     0.008 A 
ATOM     17  C   UNL     1      12.186 -15.450  10.235  1.00  0.00     0.151 A 
ATOM     18  C   UNL     1      12.460 -15.293  11.604  1.00  0.00     0.124 A 
ATOM     19  C   UNL     1      10.891 -15.178   9.777  1.00  0.00     0.052 A 
ATOM     20  N   UNL     1      13.631 -15.491  12.300  1.00  0.00    -0.230 NA
ATOM     21  C   UNL     1      11.442 -14.875  12.456  1.00  0.00     0.072 A 
ATOM     22  C   UNL     1      13.338 -15.201  13.548  1.00  0.00     0.107 A 
ATOM     23  N   UNL     1      12.032 -14.825  13.693  1.00  0.00    -0.326 N 
ATOM     24  C   UNL     1      10.145 -14.598  12.022  1.00  0.00     0.039 A 
ATOM     25  F   UNL     1      13.136 -15.849   9.380  1.00  0.00    -0.205 F 
ATOM     26  C   UNL     1      14.272 -15.259  14.691  1.00  0.00     0.088 C 
BRANCH  23  27
ATOM     27  C   UNL     1      11.385 -14.442  14.928  1.00  0.00     0.083 C 
ATOM     28  C   UNL     1      10.193 -15.349  15.244  1.00  0.00     0.031 C 
ATOM     29  C   UNL     1      10.960 -12.970  14.909  1.00  0.00     0.031 C 
ENDBRANCH  23  27
ENDBRANCH  10  16
ENDBRANCH   7   9
ENDBRANCH   6   7
BRANCH   2  30
ATOM     30  C   UNL     1       7.745  -7.522  13.610  1.00  0.00     0.121 C 
BRANCH  30  31
ATOM     31  N   UNL     1       8.491  -8.037  14.755  1.00  0.00    -0.296 NA
ATOM     32  C   UNL     1       9.880  -8.333  14.381  1.00  0.00     0.100 C 
ATOM     33  C   UNL     1       8.453  -7.086  15.873  1.00  0.00     0.100 C 
ATOM     34  C   UNL     1      10.667  -8.870  15.582  1.00  0.00     0.100 C 
ATOM     35  C   UNL     1       9.239  -7.623  17.074  1.00  0.00     0.100 C 
ATOM     36  N   UNL     1      10.628  -7.918  16.699  1.00  0.00    -0.301 NA
BRANCH  36  37
ATOM     37  C   UNL     1      11.377  -8.432  17.845  1.00  0.00     0.081 C 
ATOM     38  C   UNL     1      11.530  -9.941  17.767  1.00  0.00     0.021 C 
ENDBRANCH  36  37
ENDBRANCH  30  31
ENDBRANCH   2  30
TORSDOF 7
ENDMDL
MODEL 4
REMARK VINA RESULT:     0.006      3.462      5.638
REMARK INTER + INTRA:          -1.462
REMARK INTER:                   0.000
REMARK INTRA:                  -1.462
REMARK UNBOUND:                -1.471
REMARK SMILES CCN1CCN(Cc2ccc(Nc3ncc(F)c(-c4cc(F)c5nc(C)n(C(C)C)c5c4)n3)nc2)CC1
REMARK SMILES IDX 34 1 8 2 9 3 35 4 10 5 11 6 12 7 13 9 18 10 33 11 16 12
REMARK SMILES IDX 15 13 14 14 17 15 19 16 21 17 23 18 20 19 24 20 31 21 25 22
REMARK SMILES IDX 27 23 32 24 22 25 26 26 28 27 29 28 30 29 7 30 6 31 5 32
REMARK SMILES IDX 36 33 4 34 37 35 3 36 2 37 1 38
REMARK H PARENT 12 8
ROOT
ATOM      1  N   UNL     1      10.508 -10.296  10.551  1.00  0.00    -0.239 NA
ATOM      2  C   UNL     1      11.009  -8.388  11.950  1.00  0.00    -0.015 A 
ATOM      3  C   UNL     1       9.658  -8.240  12.245  1.00  0.00     0.010 A 
ATOM      4  C   UNL     1      11.379  -9.423  11.106  1.00  0.00     0.118 A 
ATOM      5  C   UNL     1       8.731  -9.118  11.693  1.00  0.00     0.047 A 
ATOM      6  C   UNL     1       9.204 -10.120  10.860  1.00  0.00     0.132 A 
ENDROOT
BRANCH   6   7
ATOM      7  N   UNL     1       8.247 -11.005  10.304  1.00  0.00    -0.309 N 
ATOM      8  H   UNL     1       7.693 -10.614   9.549  1.00  0.00     0.171 HD
BRANCH   7   9
ATOM      9  C   UNL     1       7.907 -12.336  10.596  1.00  0.00     0.229 A 
ATOM     10  C   UNL     1       7.890 -14.067  12.070  1.00  0.00     0.112 A 
ATOM     11  N   UNL     1       8.231 -12.785  11.824  1.00  0.00    -0.210 NA
ATOM     12  C   UNL     1       7.258 -14.882  11.152  1.00  0.00     0.167 A 
ATOM     13  C   UNL     1       6.981 -14.303   9.931  1.00  0.00     0.156 A 
ATOM     14  N   UNL     1       7.293 -13.028   9.618  1.00  0.00    -0.218 NA
ATOM     15  F   UNL     1       6.930 -16.151  11.417  1.00  0.00    -0.203 F 
BRANCH  10  16
ATOM     16  C   UNL     1       8.238 -14.548  13.385  1.00  0.00     0.008 A 
ATOM     17  C   UNL     1       7.524 -15.383  15.558  1.00  0.00     0.151 A 
ATOM     18  C   UNL     1       8.873 -15.477  15.939  1.00  0.00     0.124 A 
ATOM     19  C   UNL     1       7.223 -14.914  14.273  1.00  0.00     0.052 A 
ATOM     20  N   UNL     1       9.430 -15.900  17.125  1.00  0.00    -0.230 NA
ATOM     21  C   UNL     1       9.861 -15.104  15.033  1.00  0.00     0.072 A 
ATOM     22  C   UNL     1      10.728 -15.789  16.950  1.00  0.00     0.107 A 
ATOM     23  N   UNL     1      11.038 -15.314  15.706  1.00  0.00    -0.326 N 
ATOM     24  C   UNL     1       9.586 -14.635  13.748  1.00  0.00     0.039 A 
ATOM     25  F   UNL     1       6.541 -15.732  16.398  1.00  0.00    -0.205 F 
ATOM     26  C   UNL     1      11.766 -16.124  17.945  1.00  0.00     0.088 C 
BRANCH  23  27
ATOM     27  C   UNL     1      12.367 -15.074  15.189  1.00  0.00     0.083 C 
ATOM     28  C   UNL     1      12.607 -13.586  14.922  1.00  0.00     0.031 C 
ATOM     29  C   UNL     1      12.641 -15.906  13.932  1.00  0.00     0.031 C 
ENDBRANCH  23  27
ENDBRANCH  10  16
ENDBRANCH   7   9
ENDBRANCH   6   7
BRANCH   2  30
ATOM     30  C   UNL     1      12.038  -7.454  12.529  1.00  0.00     0.121 C 
BRANCH  30  31
ATOM     31  N   UNL     1      13.063  -8.172  13.282  1.00  0.00    -0.296 NA
ATOM     32  C   UNL     1      14.247  -7.328  13.487  1.00  0.00     0.100 C 
ATOM     33  C   UNL     1      12.535  -8.636  14.571  1.00  0.00     0.100 C 
ATOM     34  C   UNL     1      15.323  -8.079  14.280  1.00  0.00     0.100 C 
ATOM     35  C   UNL     1      13.610  -9.387  15.363  1.00  0.00     0.100 C 
ATOM     36  N   UNL     1      14.794  -8.542  15.568  1.00  0.00    -0.301 NA
BRANCH  36  37
ATOM     37  C   UNL     1      15.820  -9.260  16.323  1.00  0.00     0.081 C 
ATOM     38  C   UNL     1      15.499 -10.742  16.410  1.00  0.00     0.021 C 
ENDBRANCH  36  37
ENDBRANCH  30  31
ENDBRANCH   2  30
TORSDOF 7
ENDMDL
MODEL 5
REMARK VINA RESULT:     0.008      2.851      7.333
REMARK INTER + INTRA:          -1.460
REMARK INTER:                   0.000
REMARK INTRA:                  -1.460
REMARK UNBOUND:                -1.471
REMARK SMILES CCN1CCN(Cc2ccc(Nc3ncc(F)c(-c4cc(F)c5nc(C)n(C(C)C)c5c4)n3)nc2)CC1
REMARK SMILES IDX 34 1 8 2 9 3 35 4 10 5 11 6 12 7 13 9 18 10 33 11 16 12
REMARK SMILES IDX 15 13 14 14 17 15 19 16 21 17 23 18 20 19 24 20 31 21 25 22
REMARK SMILES IDX 27 23 32 24 22 25 26 26 28 27 29 28 30 29 7 30 6 31 5 32
REMARK SMILES IDX 36 33 4 34 37 35 3 36 2 37 1 38
REMARK H PARENT 12 8
ROOT
ATOM      1  N   UNL     1       8.893 -14.976  15.708  1.00  0.00    -0.239 NA
ATOM      2  C   UNL     1       8.972 -12.714  16.559  1.00  0.00    -0.015 A 
ATOM      3  C   UNL     1       8.060 -12.309  15.589  1.00  0.00     0.010 A 
ATOM      4  C   UNL     1       9.352 -14.046  16.576  1.00  0.00     0.118 A 
ATOM      5  C   UNL     1       7.566 -13.237  14.677  1.00  0.00     0.047 A 
ATOM      6  C   UNL     1       8.010 -14.545  14.779  1.00  0.00     0.132 A 
ENDROOT
BRANCH   6   7
ATOM      7  N   UNL     1       7.498 -15.478  13.843  1.00  0.00    -0.309 N 
ATOM      8  H   UNL     1       6.796 -16.111  14.214  1.00  0.00     0.171 HD
BRANCH   7   9
ATOM      9  C   UNL     1       7.773 -15.704  12.485  1.00  0.00     0.229 A 
ATOM     10  C   UNL     1       9.231 -15.590  10.744  1.00  0.00     0.112 A 
ATOM     11  N   UNL     1       9.001 -15.360  12.053  1.00  0.00    -0.210 NA
ATOM     12  C   UNL     1       8.297 -16.135   9.887  1.00  0.00     0.167 A 
ATOM     13  C   UNL     1       7.077 -16.444  10.451  1.00  0.00     0.156 A 
ATOM     14  N   UNL     1       6.779 -16.241  11.751  1.00  0.00    -0.218 NA
ATOM     15  F   UNL     1       8.545 -16.355   8.591  1.00  0.00    -0.203 F 
BRANCH  10  16
ATOM     16  C   UNL     1      10.547 -15.221  10.282  1.00  0.00     0.008 A 
ATOM     17  C   UNL     1      12.698 -15.887   9.355  1.00  0.00     0.151 A 
ATOM     18  C   UNL     1      13.101 -14.543   9.386  1.00  0.00     0.124 A 
ATOM     19  C   UNL     1      11.412 -16.210   9.809  1.00  0.00     0.052 A 
ATOM     20  N   UNL     1      14.293 -13.968   9.003  1.00  0.00    -0.230 NA
ATOM     21  C   UNL     1      12.217 -13.580   9.863  1.00  0.00     0.072 A 
ATOM     22  C   UNL     1      14.143 -12.684   9.240  1.00  0.00     0.107 A 
ATOM     23  N   UNL     1      12.910 -12.400   9.758  1.00  0.00    -0.326 N 
ATOM     24  C   UNL     1      10.933 -13.877  10.319  1.00  0.00     0.039 A 
ATOM     25  F   UNL     1      13.516 -16.847   8.903  1.00  0.00    -0.205 F 
ATOM     26  C   UNL     1      15.153 -11.635   8.993  1.00  0.00     0.088 C 
BRANCH  23  27
ATOM     27  C   UNL     1      12.420 -11.091  10.131  1.00  0.00     0.083 C 
ATOM     28  C   UNL     1      12.160 -10.995  11.636  1.00  0.00     0.031 C 
ATOM     29  C   UNL     1      11.167 -10.712   9.336  1.00  0.00     0.031 C 
ENDBRANCH  23  27
ENDBRANCH  10  16
ENDBRANCH   7   9
ENDBRANCH   6   7
BRANCH   2  30
ATOM     30  C   UNL     1       9.528 -11.735  17.559  1.00  0.00     0.121 C 
BRANCH  30  31
ATOM     31  N   UNL     1      10.185 -10.605  16.906  1.00  0.00    -0.296 NA
ATOM     32  C   UNL     1      10.333  -9.480  17.837  1.00  0.00     0.100 C 
ATOM     33  C   UNL     1      11.493 -11.002  16.369  1.00  0.00     0.100 C 
ATOM     34  C   UNL     1      11.026  -8.294  17.155  1.00  0.00     0.100 C 
ATOM     35  C   UNL     1      12.185  -9.818  15.687  1.00  0.00     0.100 C 
ATOM     36  N   UNL     1      12.334  -8.692  16.619  1.00  0.00    -0.301 NA
BRANCH  36  37
ATOM     37  C   UNL     1      12.993  -7.562  15.967  1.00  0.00     0.081 C 
ATOM     38  C   UNL     1      13.158  -7.808  14.478  1.00  0.00     0.021 C 
ENDBRANCH  36  37
ENDBRANCH  30  31
ENDBRANCH   2  30
TORSDOF 7
ENDMDL
MODEL 6
REMARK VINA RESULT:     0.008      3.307      5.881
REMARK INTER + INTRA:          -1.460
REMARK INTER:                   0.000
REMARK INTRA:                  -1.460
REMARK UNBOUND:                -1.471
REMARK SMILES CCN1CCN(Cc2ccc(Nc3ncc(F)c(-c4cc(F)c5nc(C)n(C(C)C)c5c4)n3)nc2)CC1
REMARK SMILES IDX 34 1 8 2 9 3 35 4 10 5 11 6 12 7 13 9 18 10 33 11 16 12
REMARK SMILES IDX 15 13 14 14 17 15 19 16 21 17 23 18 20 19 24 20 31 21 25 22
REMARK SMILES IDX 27 23 32 24 22 25 26 26 28 27 29 28 30 29 7 30 6 31 5 32
REMARK SMILES IDX 36 33 4 34 37 35 3 36 2 37 1 38
REMARK H PARENT 12 8
ROOT
ATOM      1  N   UNL     1      12.563 -16.510  11.174  1.00  0.00    -0.239 NA
ATOM      2  C   UNL     1      14.438 -15.077  11.702  1.00  0.00    -0.015 A 
ATOM      3  C   UNL     1      14.288 -14.419  10.485  1.00  0.00     0.010 A 
ATOM      4  C   UNL     1      13.558 -16.106  11.996  1.00  0.00     0.118 A 
ATOM      5  C   UNL     1      13.277 -14.807   9.612  1.00  0.00     0.047 A 
ATOM      6  C   UNL     1      12.449 -15.848  10.000  1.00  0.00     0.132 A 
ENDROOT
BRANCH   6   7
ATOM      7  N   UNL     1      11.424 -16.232   9.099  1.00  0.00    -0.309 N 
ATOM      8  H   UNL     1      11.743 -16.759   8.293  1.00  0.00     0.171 HD
BRANCH   7   9
ATOM      9  C   UNL     1      10.036 -16.023   9.100  1.00  0.00     0.229 A 
ATOM     10  C   UNL     1       8.244 -14.820   9.817  1.00  0.00     0.112 A 
ATOM     11  N   UNL     1       9.582 -14.992   9.839  1.00  0.00    -0.210 NA
ATOM     12  C   UNL     1       7.380 -15.625   9.102  1.00  0.00     0.167 A 
ATOM     13  C   UNL     1       7.970 -16.647   8.387  1.00  0.00     0.156 A 
ATOM     14  N   UNL     1       9.299 -16.876   8.363  1.00  0.00    -0.218 NA
ATOM     15  F   UNL     1       6.056 -15.438   9.095  1.00  0.00    -0.203 F 
BRANCH  10  16
ATOM     16  C   UNL     1       7.759 -13.716  10.609  1.00  0.00     0.008 A 
ATOM     17  C   UNL     1       6.649 -11.552  10.713  1.00  0.00     0.151 A 
ATOM     18  C   UNL     1       6.812 -11.562  12.108  1.00  0.00     0.124 A 
ATOM     19  C   UNL     1       7.130 -12.641   9.976  1.00  0.00     0.052 A 
ATOM     20  N   UNL     1       6.435 -10.630  13.050  1.00  0.00    -0.230 NA
ATOM     21  C   UNL     1       7.443 -12.647  12.710  1.00  0.00     0.072 A 
ATOM     22  C   UNL     1       6.826 -11.132  14.200  1.00  0.00     0.107 A 
ATOM     23  N   UNL     1       7.438 -12.345  14.048  1.00  0.00    -0.326 N 
ATOM     24  C   UNL     1       7.929 -13.742  11.997  1.00  0.00     0.039 A 
ATOM     25  F   UNL     1       6.047 -10.529  10.093  1.00  0.00    -0.205 F 
ATOM     26  C   UNL     1       6.647 -10.501  15.523  1.00  0.00     0.088 C 
BRANCH  23  27
ATOM     27  C   UNL     1       7.983 -13.165  15.106  1.00  0.00     0.083 C 
ATOM     28  C   UNL     1       9.504 -13.295  14.991  1.00  0.00     0.031 C 
ATOM     29  C   UNL     1       7.319 -14.545  15.148  1.00  0.00     0.031 C 
ENDBRANCH  23  27
ENDBRANCH  10  16
ENDBRANCH   7   9
ENDBRANCH   6   7
BRANCH   2  30
ATOM     30  C   UNL     1      15.524 -14.684  12.668  1.00  0.00     0.121 C 
BRANCH  30  31
ATOM     31  N   UNL     1      14.984 -14.335  13.980  1.00  0.00    -0.296 NA
ATOM     32  C   UNL     1      16.036 -14.371  15.003  1.00  0.00     0.100 C 
ATOM     33  C   UNL     1      14.346 -13.014  13.947  1.00  0.00     0.100 C 
ATOM     34  C   UNL     1      15.473 -14.002  16.380  1.00  0.00     0.100 C 
ATOM     35  C   UNL     1      13.782 -12.645  15.323  1.00  0.00     0.100 C 
ATOM     36  N   UNL     1      14.835 -12.680  16.346  1.00  0.00    -0.301 NA
BRANCH  36  37
ATOM     37  C   UNL     1      14.296 -12.329  17.659  1.00  0.00     0.081 C 
ATOM     38  C   UNL     1      12.778 -12.275  17.631  1.00  0.00     0.021 C 
ENDBRANCH  36  37
ENDBRANCH  30  31
ENDBRANCH   2  30
TORSDOF 7
ENDMDL
MODEL 7
REMARK VINA RESULT:     0.009      3.577      5.754
REMARK INTER + INTRA:          -1.458
REMARK INTER:                   0.000
REMARK INTRA:                  -1.458
REMARK UNBOUND:                -1.471
REMARK SMILES CCN1CCN(Cc2ccc(Nc3ncc(F)c(-c4cc(F)c5nc(C)n(C(C)C)c5c4)n3)nc2)CC1
REMARK SMILES IDX 34 1 8 2 9 3 35 4 10 5 11 6 12 7 13 9 18 10 33 11 16 12
REMARK SMILES IDX 15 13 14 14 17 15 19 16 21 17 23 18 20 19 24 20 31 21 25 22
REMARK SMILES IDX 27 23 32 24 22 25 26 26 28 27 29 28 30 29 7 30 6 31 5 32
REMARK SMILES IDX 36 33 4 34 37 35 3 36 2 37 1 38
REMARK H PARENT 12 8
ROOT
ATOM      1  N   UNL     1       6.003 -11.034  12.798  1.00  0.00    -0.239 NA
ATOM      2  C   UNL     1       6.431 -11.399  10.447  1.00  0.00    -0.015 A 
ATOM      3  C   UNL     1       6.628 -10.034  10.263  1.00  0.00     0.010 A 
ATOM      4  C   UNL     1       6.124 -11.844  11.722  1.00  0.00     0.118 A 
ATOM      5  C   UNL     1       6.511  -9.169  11.346  1.00  0.00     0.047 A 
ATOM      6  C   UNL     1       6.201  -9.715  12.581  1.00  0.00     0.132 A 
ENDROOT
BRANCH   6   7
ATOM      7  N   UNL     1       6.085  -8.820  13.675  1.00  0.00    -0.309 N 
ATOM      8  H   UNL     1       5.235  -8.265  13.681  1.00  0.00     0.171 HD
BRANCH   7   9
ATOM      9  C   UNL     1       6.925  -8.544  14.765  1.00  0.00     0.229 A 
ATOM     10  C   UNL     1       9.010  -8.550  15.672  1.00  0.00     0.112 A 
ATOM     11  N   UNL     1       8.232  -8.828  14.606  1.00  0.00    -0.210 NA
ATOM     12  C   UNL     1       8.531  -8.017  16.852  1.00  0.00     0.167 A 
ATOM     13  C   UNL     1       7.173  -7.773  16.889  1.00  0.00     0.156 A 
ATOM     14  N   UNL     1       6.338  -8.025  15.860  1.00  0.00    -0.218 NA
ATOM     15  F   UNL     1       9.319  -7.751  17.899  1.00  0.00    -0.203 F 
BRANCH  10  16
ATOM     16  C   UNL     1      10.410  -8.855  15.502  1.00  0.00     0.008 A 
ATOM     17  C   UNL     1      12.710  -8.076  15.337  1.00  0.00     0.151 A 
ATOM     18  C   UNL     1      13.125  -9.407  15.168  1.00  0.00     0.124 A 
ATOM     19  C   UNL     1      11.344  -7.816  15.503  1.00  0.00     0.052 A 
ATOM     20  N   UNL     1      14.388  -9.925  14.989  1.00  0.00    -0.230 NA
ATOM     21  C   UNL     1      12.170 -10.420  15.170  1.00  0.00     0.072 A 
ATOM     22  C   UNL     1      14.212 -11.223  14.884  1.00  0.00     0.107 A 
ATOM     23  N   UNL     1      12.894 -11.571  14.987  1.00  0.00    -0.326 N 
ATOM     24  C   UNL     1      10.805 -10.186  15.334  1.00  0.00     0.039 A 
ATOM     25  F   UNL     1      13.595  -7.070  15.342  1.00  0.00    -0.205 F 
ATOM     26  C   UNL     1      15.277 -12.226  14.679  1.00  0.00     0.088 C 
BRANCH  23  27
ATOM     27  C   UNL     1      12.356 -12.911  14.915  1.00  0.00     0.083 C 
ATOM     28  C   UNL     1      11.461 -13.094  13.687  1.00  0.00     0.031 C 
ATOM     29  C   UNL     1      11.606 -13.286  16.197  1.00  0.00     0.031 C 
ENDBRANCH  23  27
ENDBRANCH  10  16
ENDBRANCH   7   9
ENDBRANCH   6   7
BRANCH   2  30
ATOM     30  C   UNL     1       6.547 -12.362   9.295  1.00  0.00     0.121 C 
BRANCH  30  31
ATOM     31  N   UNL     1       7.534 -13.406   9.557  1.00  0.00    -0.296 NA
ATOM     32  C   UNL     1       7.351 -14.538   8.640  1.00  0.00     0.100 C 
ATOM     33  C   UNL     1       8.898 -12.873   9.448  1.00  0.00     0.100 C 
ATOM     34  C   UNL     1       8.389 -15.633   8.909  1.00  0.00     0.100 C 
ATOM     35  C   UNL     1       9.935 -13.968   9.719  1.00  0.00     0.100 C 
ATOM     36  N   UNL     1       9.752 -15.100   8.800  1.00  0.00    -0.301 NA
BRANCH  36  37
ATOM     37  C   UNL     1      10.741 -16.145   9.061  1.00  0.00     0.081 C 
ATOM     38  C   UNL     1      11.460 -15.903  10.376  1.00  0.00     0.021 C 
ENDBRANCH  36  37
ENDBRANCH  30  31
ENDBRANCH   2  30
TORSDOF 7
ENDMDL
MODEL 8
REMARK VINA RESULT:     0.013      3.731      8.456
REMARK INTER + INTRA:          -1.453
REMARK INTER:                   0.000
REMARK INTRA:                  -1.453
REMARK UNBOUND:                -1.471
REMARK SMILES CCN1CCN(Cc2ccc(Nc3ncc(F)c(-c4cc(F)c5nc(C)n(C(C)C)c5c4)n3)nc2)CC1
REMARK SMILES IDX 34 1 8 2 9 3 35 4 10 5 11 6 12 7 13 9 18 10 33 11 16 12
REMARK SMILES IDX 15 13 14 14 17 15 19 16 21 17 23 18 20 19 24 20 31 21 25 22
REMARK SMILES IDX 27 23 32 24 22 25 26 26 28 27 29 28 30 29 7 30 6 31 5 32
REMARK SMILES IDX 36 33 4 34 37 35 3 36 2 37 1 38
REMARK H PARENT 12 8
ROOT
ATOM      1  N   UNL     1      12.435 -10.908  16.942  1.00  0.00    -0.239 NA
ATOM      2  C   UNL     1      11.842  -8.710  16.126  1.00  0.00    -0.015 A 
ATOM      3  C   UNL     1      13.094  -8.584  15.533  1.00  0.00     0.010 A 
ATOM      4  C   UNL     1      11.564  -9.881  16.813  1.00  0.00     0.118 A 
ATOM      5  C   UNL     1      14.018  -9.618  15.646  1.00  0.00     0.047 A 
ATOM      6  C   UNL     1      13.642 -10.749  16.354  1.00  0.00     0.132 A 
ENDROOT
BRANCH   6   7
ATOM      7  N   UNL     1      14.594 -11.793  16.460  1.00  0.00    -0.309 N 
ATOM      8  H   UNL     1      15.389 -11.585  17.056  1.00  0.00     0.171 HD
BRANCH   7   9
ATOM      9  C   UNL     1      14.657 -13.077  15.895  1.00  0.00     0.229 A 
ATOM     10  C   UNL     1      14.105 -14.495  14.206  1.00  0.00     0.112 A 
ATOM     11  N   UNL     1      14.024 -13.250  14.720  1.00  0.00    -0.210 NA
ATOM     12  C   UNL     1      14.778 -15.534  14.818  1.00  0.00     0.167 A 
ATOM     13  C   UNL     1      15.384 -15.228  16.018  1.00  0.00     0.156 A 
ATOM     14  N   UNL     1      15.344 -14.006  16.588  1.00  0.00    -0.218 NA
ATOM     15  F   UNL     1      14.845 -16.762  14.292  1.00  0.00    -0.203 F 
BRANCH  10  16
ATOM     16  C   UNL     1      13.425 -14.681  12.947  1.00  0.00     0.008 A 
ATOM     17  C   UNL     1      13.538 -15.202  10.571  1.00  0.00     0.151 A 
ATOM     18  C   UNL     1      12.145 -15.041  10.494  1.00  0.00     0.124 A 
ATOM     19  C   UNL     1      14.165 -15.017  11.810  1.00  0.00     0.052 A 
ATOM     20  N   UNL     1      11.299 -15.165   9.414  1.00  0.00    -0.230 NA
ATOM     21  C   UNL     1      11.436 -14.706  11.643  1.00  0.00     0.072 A 
ATOM     22  C   UNL     1      10.101 -14.911   9.890  1.00  0.00     0.107 A 
ATOM     23  N   UNL     1      10.130 -14.629  11.228  1.00  0.00    -0.326 N 
ATOM     24  C   UNL     1      12.037 -14.517  12.887  1.00  0.00     0.039 A 
ATOM     25  F   UNL     1      14.260 -15.525   9.490  1.00  0.00    -0.205 F 
ATOM     26  C   UNL     1       8.843 -14.918   9.115  1.00  0.00     0.088 C 
BRANCH  23  27
ATOM     27  C   UNL     1       8.992 -14.308  12.059  1.00  0.00     0.083 C 
ATOM     28  C   UNL     1       9.075 -12.878  12.599  1.00  0.00     0.031 C 
ATOM     29  C   UNL     1       8.827 -15.313  13.202  1.00  0.00     0.031 C 
ENDBRANCH  23  27
ENDBRANCH  10  16
ENDBRANCH   7   9
ENDBRANCH   6   7
BRANCH   2  30
ATOM     30  C   UNL     1      10.821  -7.608  16.026  1.00  0.00     0.121 C 
BRANCH  30  31
ATOM     31  N   UNL     1       9.560  -8.085  15.462  1.00  0.00    -0.296 NA
ATOM     32  C   UNL     1       8.467  -7.156  15.772  1.00  0.00     0.100 C 
ATOM     33  C   UNL     1       9.676  -8.275  14.011  1.00  0.00     0.100 C 
ATOM     34  C   UNL     1       7.143  -7.651  15.178  1.00  0.00     0.100 C 
ATOM     35  C   UNL     1       8.354  -8.772  13.418  1.00  0.00     0.100 C 
ATOM     36  N   UNL     1       7.260  -7.841  13.727  1.00  0.00    -0.301 NA
BRANCH  36  37
ATOM     37  C   UNL     1       5.998  -8.316  13.162  1.00  0.00     0.081 C 
ATOM     38  C   UNL     1       6.115  -9.757  12.697  1.00  0.00     0.021 C 
ENDBRANCH  36  37
ENDBRANCH  30  31
ENDBRANCH   2  30
TORSDOF 7
ENDMDL
MODEL 9
REMARK VINA RESULT:     0.015      3.836      7.911
REMARK INTER + INTRA:          -1.450
REMARK INTER:                   0.000
REMARK INTRA:                  -1.450
REMARK UNBOUND:                -1.471
REMARK SMILES CCN1CCN(Cc2ccc(Nc3ncc(F)c(-c4cc(F)c5nc(C)n(C(C)C)c5c4)n3)nc2)CC1
REMARK SMILES IDX 34 1 8 2 9 3 35 4 10 5 11 6 12 7 13 9 18 10 33 11 16 12
REMARK SMILES IDX 15 13 14 14 17 15 19 16 21 17 23 18 20 19 24 20 31 21 25 22
REMARK SMILES IDX 27 23 32 24 22 25 26 26 28 27 29 28 30 29 7 30 6 31 5 32
REMARK SMILES IDX 36 33 4 34 37 35 3 36 2 37 1 38
REMARK H PARENT 12 8
ROOT
ATOM      1  N   UNL     1      13.040  -9.482  10.683  1.00  0.00    -0.239 NA
ATOM      2  C   UNL     1      11.049  -8.391  11.514  1.00  0.00    -0.015 A 
ATOM      3  C   UNL     1      10.263  -9.160  10.663  1.00  0.00     0.010 A 
ATOM      4  C   UNL     1      12.420  -8.589  11.486  1.00  0.00     0.118 A 
ATOM      5  C   UNL     1      10.864 -10.089   9.820  1.00  0.00     0.047 A 
ATOM      6  C   UNL     1      12.244 -10.210   9.869  1.00  0.00     0.132 A 
ENDROOT
BRANCH   6   7
ATOM      7  N   UNL     1      12.842 -11.161   9.004  1.00  0.00    -0.309 N 
ATOM      8  H   UNL     1      13.194 -10.779   8.132  1.00  0.00     0.171 HD
BRANCH   7   9
ATOM      9  C   UNL     1      13.045 -12.545   9.114  1.00  0.00     0.229 A 
ATOM     10  C   UNL     1      13.252 -14.388  10.431  1.00  0.00     0.112 A 
ATOM     11  N   UNL     1      13.055 -13.055  10.361  1.00  0.00    -0.210 NA
ATOM     12  C   UNL     1      13.435 -15.194   9.325  1.00  0.00     0.167 A 
ATOM     13  C   UNL     1      13.404 -14.550   8.105  1.00  0.00     0.156 A 
ATOM     14  N   UNL     1      13.211 -13.223   7.962  1.00  0.00    -0.218 NA
ATOM     15  F   UNL     1      13.630 -16.514   9.416  1.00  0.00    -0.203 F 
BRANCH  10  16
ATOM     16  C   UNL     1      13.264 -14.934  11.766  1.00  0.00     0.008 A 
ATOM     17  C   UNL     1      14.488 -16.030  13.562  1.00  0.00     0.151 A 
ATOM     18  C   UNL     1      13.321 -16.004  14.343  1.00  0.00     0.124 A 
ATOM     19  C   UNL     1      14.442 -15.489  12.271  1.00  0.00     0.052 A 
ATOM     20  N   UNL     1      13.102 -16.461  15.623  1.00  0.00    -0.230 NA
ATOM     21  C   UNL     1      12.162 -15.445  13.812  1.00  0.00     0.072 A 
ATOM     22  C   UNL     1      11.840 -16.190  15.870  1.00  0.00     0.107 A 
ATOM     23  N   UNL     1      11.231 -15.577  14.811  1.00  0.00    -0.326 N 
ATOM     24  C   UNL     1      12.092 -14.900  12.530  1.00  0.00     0.039 A 
ATOM     25  F   UNL     1      15.625 -16.557  14.034  1.00  0.00    -0.205 F 
ATOM     26  C   UNL     1      11.121 -16.489  17.125  1.00  0.00     0.088 C 
BRANCH  23  27
ATOM     27  C   UNL     1       9.853 -15.145  14.750  1.00  0.00     0.083 C 
ATOM     28  C   UNL     1       9.106 -15.807  13.589  1.00  0.00     0.031 C 
ATOM     29  C   UNL     1       9.744 -13.619  14.669  1.00  0.00     0.031 C 
ENDBRANCH  23  27
ENDBRANCH  10  16
ENDBRANCH   7   9
ENDBRANCH   6   7
BRANCH   2  30
ATOM     30  C   UNL     1      10.430  -7.375  12.437  1.00  0.00     0.121 C 
BRANCH  30  31
ATOM     31  N   UNL     1       9.449  -7.981  13.334  1.00  0.00    -0.296 NA
ATOM     32  C   UNL     1      10.117  -8.739  14.399  1.00  0.00     0.100 C 
ATOM     33  C   UNL     1       8.566  -6.959  13.908  1.00  0.00     0.100 C 
ATOM     34  C   UNL     1       9.091  -9.373  15.345  1.00  0.00     0.100 C 
ATOM     35  C   UNL     1       7.539  -7.593  14.852  1.00  0.00     0.100 C 
ATOM     36  N   UNL     1       8.208  -8.350  15.919  1.00  0.00    -0.301 NA
BRANCH  36  37
ATOM     37  C   UNL     1       7.227  -8.956  16.818  1.00  0.00     0.081 C 
ATOM     38  C   UNL     1       7.341 -10.470  16.813  1.00  0.00     0.021 C 
ENDBRANCH  36  37
ENDBRANCH  30  31
ENDBRANCH   2  30
TORSDOF 7
ENDMDL
