2mm3_Abemaciclib_out
     RDKit          3D

 69 73  0  0  0  0  0  0  0  0999 V2000
   15.3810  -10.4290   11.7960 C   0  0  0  0  0  0  0  0  0  0  0  0
   15.6320  -10.6570   10.3160 C   0  0  0  0  0  0  0  0  0  0  0  0
   14.5150  -11.3660    9.6940 N   0  0  0  0  0  0  0  0  0  0  0  0
   14.9300  -12.6990    9.2420 C   0  0  0  0  0  0  0  0  0  0  0  0
   13.7580  -13.4440    8.5930 C   0  0  0  0  0  0  0  0  0  0  0  0
   12.6240  -13.5460    9.5200 N   0  0  0  0  0  0  0  0  0  0  0  0
   11.5080  -14.2530    8.8970 C   0  0  0  0  0  0  0  0  0  0  0  0
   10.5010  -14.7170    9.9150 C   0  0  0  0  0  0  0  0  0  0  0  0
    9.1660  -14.3340    9.8310 C   0  0  0  0  0  0  0  0  0  0  0  0
    8.2590  -14.7820   10.7860 C   0  0  0  0  0  0  0  0  0  0  0  0
    8.7330  -15.6020   11.7970 C   0  0  0  0  0  0  0  0  0  0  0  0
    7.7960  -16.0500   12.7610 N   0  0  0  0  0  0  0  0  0  0  0  0
    7.5900  -15.7130   14.1080 C   0  0  0  0  0  0  0  0  0  0  0  0
    6.9570  -16.6290   14.8670 N   0  0  0  0  0  0  0  0  0  0  0  0
    6.7760  -16.2730   16.1550 C   0  0  0  0  0  0  0  0  0  0  0  0
    7.1960  -15.0710   16.6860 C   0  0  0  0  0  0  0  0  0  0  0  0
    6.9940  -14.7630   17.9710 F   0  0  0  0  0  0  0  0  0  0  0  0
    7.8320  -14.2190   15.8050 C   0  0  0  0  0  0  0  0  0  0  0  0
    8.3230  -12.9310   16.2310 C   0  0  0  0  0  0  0  0  0  0  0  0
    7.4250  -11.9850   16.7310 C   0  0  0  0  0  0  0  0  0  0  0  0
    7.8660  -10.7240   17.1500 C   0  0  0  0  0  0  0  0  0  0  0  0
    6.9940   -9.8270   17.6290 F   0  0  0  0  0  0  0  0  0  0  0  0
    9.2360  -10.4270   17.0570 C   0  0  0  0  0  0  0  0  0  0  0  0
    9.9180   -9.2800   17.3960 N   0  0  0  0  0  0  0  0  0  0  0  0
   11.1750   -9.5330   17.1080 C   0  0  0  0  0  0  0  0  0  0  0  0
   12.3080   -8.6050   17.2940 C   0  0  0  0  0  0  0  0  0  0  0  0
   11.3390  -10.7910   16.5980 N   0  0  0  0  0  0  0  0  0  0  0  0
   12.5880  -11.3870   16.1780 C   0  0  0  0  0  0  0  0  0  0  0  0
   12.6110  -11.6440   14.6700 C   0  0  0  0  0  0  0  0  0  0  0  0
   12.8880  -12.6720   16.9560 C   0  0  0  0  0  0  0  0  0  0  0  0
   10.1060  -11.3900   16.5540 C   0  0  0  0  0  0  0  0  0  0  0  0
    9.6900  -12.6520   16.1310 C   0  0  0  0  0  0  0  0  0  0  0  0
    8.0470  -14.5100   14.5050 N   0  0  0  0  0  0  0  0  0  0  0  0
   10.0220  -15.9940   11.9120 N   0  0  0  0  0  0  0  0  0  0  0  0
   10.8740  -15.5410   10.9660 C   0  0  0  0  0  0  0  0  0  0  0  0
   12.2100  -12.2120    9.9720 C   0  0  0  0  0  0  0  0  0  0  0  0
   13.3810  -11.4690   10.6220 C   0  0  0  0  0  0  0  0  0  0  0  0
   16.0687  -11.0536   12.3850 H   0  0  0  0  0  0  0  0  0  0  0  0
   15.5501   -9.3693   12.0376 H   0  0  0  0  0  0  0  0  0  0  0  0
   14.3424  -10.6989   12.0376 H   0  0  0  0  0  0  0  0  0  0  0  0
   15.7604   -9.6838    9.8196 H   0  0  0  0  0  0  0  0  0  0  0  0
   16.5385  -11.2704   10.2066 H   0  0  0  0  0  0  0  0  0  0  0  0
   15.7417  -12.5939    8.5071 H   0  0  0  0  0  0  0  0  0  0  0  0
   15.2743  -13.2751   10.1135 H   0  0  0  0  0  0  0  0  0  0  0  0
   13.4391  -12.8987    7.6925 H   0  0  0  0  0  0  0  0  0  0  0  0
   14.0894  -14.4594    8.3302 H   0  0  0  0  0  0  0  0  0  0  0  0
   11.0102  -13.5765    8.1867 H   0  0  0  0  0  0  0  0  0  0  0  0
   11.9090  -15.1398    8.3844 H   0  0  0  0  0  0  0  0  0  0  0  0
    8.8293  -13.6799    9.0132 H   0  0  0  0  0  0  0  0  0  0  0  0
    7.1984  -14.4941   10.7398 H   0  0  0  0  0  0  0  0  0  0  0  0
    7.1420  -16.7490   12.4250 H   0  0  0  0  0  0  0  0  0  0  0  0
    6.2635  -16.9825   16.8212 H   0  0  0  0  0  0  0  0  0  0  0  0
    6.3557  -12.2345   16.7965 H   0  0  0  0  0  0  0  0  0  0  0  0
   12.4883   -8.4573   18.3690 H   0  0  0  0  0  0  0  0  0  0  0  0
   13.2091   -9.0279   16.8258 H   0  0  0  0  0  0  0  0  0  0  0  0
   12.0708   -7.6383   16.8258 H   0  0  0  0  0  0  0  0  0  0  0  0
   13.3834  -10.6623   16.4063 H   0  0  0  0  0  0  0  0  0  0  0  0
   12.7076  -12.7238   14.4835 H   0  0  0  0  0  0  0  0  0  0  0  0
   11.6764  -11.2766   14.2211 H   0  0  0  0  0  0  0  0  0  0  0  0
   13.4655  -11.1165   14.2211 H   0  0  0  0  0  0  0  0  0  0  0  0
   12.8401  -12.4666   18.0356 H   0  0  0  0  0  0  0  0  0  0  0  0
   12.1451  -13.4402   16.6955 H   0  0  0  0  0  0  0  0  0  0  0  0
   13.8943  -13.0319   16.6955 H   0  0  0  0  0  0  0  0  0  0  0  0
   10.4024  -13.3922   15.7377 H   0  0  0  0  0  0  0  0  0  0  0  0
   11.9290  -15.8448   11.0339 H   0  0  0  0  0  0  0  0  0  0  0  0
   11.8515  -11.6338    9.1077 H   0  0  0  0  0  0  0  0  0  0  0  0
   11.4083  -12.3256   10.7166 H   0  0  0  0  0  0  0  0  0  0  0  0
   13.0537  -10.4576   10.9046 H   0  0  0  0  0  0  0  0  0  0  0  0
   13.7038  -12.0303   11.5112 H   0  0  0  0  0  0  0  0  0  0  0  0
  1  2  1  0
  2  3  1  0
  3  4  1  0
  4  5  1  0
  5  6  1  0
  6  7  1  0
  7  8  1  0
  8  9  2  0
  9 10  1  0
 10 11  2  0
 11 12  1  0
 12 13  1  0
 13 14  2  0
 14 15  1  0
 15 16  2  0
 16 17  1  0
 16 18  1  0
 18 19  1  0
 19 20  2  0
 20 21  1  0
 21 22  1  0
 21 23  2  0
 23 24  1  0
 24 25  2  0
 25 26  1  0
 25 27  1  0
 27 28  1  0
 28 29  1  0
 28 30  1  0
 27 31  1  0
 31 32  2  0
 18 33  2  0
 11 34  1  0
 34 35  2  0
  6 36  1  0
 36 37  1  0
 37  3  1  0
 35  8  1  0
 33 13  1  0
 32 19  1  0
 31 23  1  0
  1 38  1  0
  1 39  1  0
  1 40  1  0
  2 41  1  0
  2 42  1  0
  4 43  1  0
  4 44  1  0
  5 45  1  0
  5 46  1  0
  7 47  1  0
  7 48  1  0
  9 49  1  0
 10 50  1  0
 12 51  1  0
 15 52  1  0
 20 53  1  0
 26 54  1  0
 26 55  1  0
 26 56  1  0
 28 57  1  0
 29 58  1  0
 29 59  1  0
 29 60  1  0
 30 61  1  0
 30 62  1  0
 30 63  1  0
 32 64  1  0
 35 65  1  0
 36 66  1  0
 36 67  1  0
 37 68  1  0
 37 69  1  0
M  END
>  <meeko>  (1) 
{"is_sidechain": [false], "free_energy": 0.0, "intermolecular_energy": 0.0, "internal_energy": -1.471}

$$$$
2mm3_Abemaciclib_out
     RDKit          3D

 69 73  0  0  0  0  0  0  0  0999 V2000
   15.5080  -10.8120   15.1050 C   0  0  0  0  0  0  0  0  0  0  0  0
   15.8470  -11.4960   16.4180 C   0  0  0  0  0  0  0  0  0  0  0  0
   14.7620  -12.3770   16.8480 N   0  0  0  0  0  0  0  0  0  0  0  0
   13.5600  -12.1590   16.0350 C   0  0  0  0  0  0  0  0  0  0  0  0
   12.4220  -13.0840   16.4840 C   0  0  0  0  0  0  0  0  0  0  0  0
   12.8360  -14.4910   16.4220 N   0  0  0  0  0  0  0  0  0  0  0  0
   11.7520  -15.3700   16.8530 C   0  0  0  0  0  0  0  0  0  0  0  0
   10.6660  -15.4720   15.8160 C   0  0  0  0  0  0  0  0  0  0  0  0
    9.3490  -15.1440   16.1210 C   0  0  0  0  0  0  0  0  0  0  0  0
    8.3680  -15.2460   15.1400 C   0  0  0  0  0  0  0  0  0  0  0  0
    8.7530  -15.6800   13.8810 C   0  0  0  0  0  0  0  0  0  0  0  0
    7.7420  -15.7780   12.8920 N   0  0  0  0  0  0  0  0  0  0  0  0
    7.4170  -14.9750   11.7880 C   0  0  0  0  0  0  0  0  0  0  0  0
    6.7150  -15.5640   10.8010 N   0  0  0  0  0  0  0  0  0  0  0  0
    6.4190  -14.7640    9.7560 C   0  0  0  0  0  0  0  0  0  0  0  0
    6.7930  -13.4390    9.6750 C   0  0  0  0  0  0  0  0  0  0  0  0
    6.4760  -12.6850    8.6170 F   0  0  0  0  0  0  0  0  0  0  0  0
    7.5100  -12.9530   10.7510 C   0  0  0  0  0  0  0  0  0  0  0  0
    7.9610  -11.5840   10.7940 C   0  0  0  0  0  0  0  0  0  0  0  0
    7.0200  -10.5500   10.7950 C   0  0  0  0  0  0  0  0  0  0  0  0
    7.4230   -9.2090   10.8340 C   0  0  0  0  0  0  0  0  0  0  0  0
    6.5100   -8.2290   10.8360 F   0  0  0  0  0  0  0  0  0  0  0  0
    8.7980   -8.9230   10.8700 C   0  0  0  0  0  0  0  0  0  0  0  0
    9.4470   -7.7090   10.9120 N   0  0  0  0  0  0  0  0  0  0  0  0
   10.7270   -8.0090   10.9330 C   0  0  0  0  0  0  0  0  0  0  0  0
   11.8410   -7.0410   10.9800 C   0  0  0  0  0  0  0  0  0  0  0  0
   10.9370   -9.3600   10.9080 N   0  0  0  0  0  0  0  0  0  0  0  0
   12.2200  -10.0260   10.9220 C   0  0  0  0  0  0  0  0  0  0  0  0
   12.4090  -10.9090    9.6860 C   0  0  0  0  0  0  0  0  0  0  0  0
   12.4200  -10.8350   12.2070 C   0  0  0  0  0  0  0  0  0  0  0  0
    9.7100   -9.9730   10.8670 C   0  0  0  0  0  0  0  0  0  0  0  0
    9.3330  -11.3160   10.8300 C   0  0  0  0  0  0  0  0  0  0  0  0
    7.8390  -13.6960   11.8280 N   0  0  0  0  0  0  0  0  0  0  0  0
   10.0220  -16.0080   13.5480 N   0  0  0  0  0  0  0  0  0  0  0  0
   10.9480  -15.8950   14.5260 C   0  0  0  0  0  0  0  0  0  0  0  0
   14.0390  -14.7080   17.2340 C   0  0  0  0  0  0  0  0  0  0  0  0
   15.1760  -13.7840   16.7850 C   0  0  0  0  0  0  0  0  0  0  0  0
   15.0280   -9.8436   15.3093 H   0  0  0  0  0  0  0  0  0  0  0  0
   16.4300  -10.6497   14.5274 H   0  0  0  0  0  0  0  0  0  0  0  0
   14.8205  -11.4474   14.5274 H   0  0  0  0  0  0  0  0  0  0  0  0
   16.7627  -12.0913   16.2871 H   0  0  0  0  0  0  0  0  0  0  0  0
   15.9950  -10.7231   17.1866 H   0  0  0  0  0  0  0  0  0  0  0  0
   13.2375  -11.1128   16.1419 H   0  0  0  0  0  0  0  0  0  0  0  0
   13.8004  -12.3809   14.9848 H   0  0  0  0  0  0  0  0  0  0  0  0
   12.1430  -12.8358   17.5187 H   0  0  0  0  0  0  0  0  0  0  0  0
   11.5647  -12.9396   15.8100 H   0  0  0  0  0  0  0  0  0  0  0  0
   12.1611  -16.3739   17.0395 H   0  0  0  0  0  0  0  0  0  0  0  0
   11.3116  -14.9451   17.7671 H   0  0  0  0  0  0  0  0  0  0  0  0
    9.0844  -14.8054   17.1336 H   0  0  0  0  0  0  0  0  0  0  0  0
    7.3202  -14.9904   15.3564 H   0  0  0  0  0  0  0  0  0  0  0  0
    7.1290  -16.5800   12.9910 H   0  0  0  0  0  0  0  0  0  0  0  0
    5.8465  -15.1931    8.9205 H   0  0  0  0  0  0  0  0  0  0  0  0
    5.9476  -10.7930   10.7647 H   0  0  0  0  0  0  0  0  0  0  0  0
   12.0927   -6.8223   12.0282 H   0  0  0  0  0  0  0  0  0  0  0  0
   12.7192   -7.4677   10.4734 H   0  0  0  0  0  0  0  0  0  0  0  0
   11.5410   -6.1118   10.4734 H   0  0  0  0  0  0  0  0  0  0  0  0
   12.9909   -9.2418   10.8954 H   0  0  0  0  0  0  0  0  0  0  0  0
   12.6295  -11.9394   10.0017 H   0  0  0  0  0  0  0  0  0  0  0  0
   11.4884  -10.8991    9.0840 H   0  0  0  0  0  0  0  0  0  0  0  0
   13.2449  -10.5231    9.0840 H   0  0  0  0  0  0  0  0  0  0  0  0
   12.2591  -10.1840   13.0789 H   0  0  0  0  0  0  0  0  0  0  0  0
   11.7004  -11.6666   12.2325 H   0  0  0  0  0  0  0  0  0  0  0  0
   13.4442  -11.2355   12.2325 H   0  0  0  0  0  0  0  0  0  0  0  0
   10.0788  -12.1246   10.8292 H   0  0  0  0  0  0  0  0  0  0  0  0
   11.9891  -16.1545   14.2837 H   0  0  0  0  0  0  0  0  0  0  0  0
   13.8034  -14.5028   18.2887 H   0  0  0  0  0  0  0  0  0  0  0  0
   14.3639  -15.7514   17.1088 H   0  0  0  0  0  0  0  0  0  0  0  0
   16.0439  -13.9341   17.4440 H   0  0  0  0  0  0  0  0  0  0  0  0
   15.4375  -14.0277   15.7447 H   0  0  0  0  0  0  0  0  0  0  0  0
  1  2  1  0
  2  3  1  0
  3  4  1  0
  4  5  1  0
  5  6  1  0
  6  7  1  0
  7  8  1  0
  8  9  2  0
  9 10  1  0
 10 11  2  0
 11 12  1  0
 12 13  1  0
 13 14  2  0
 14 15  1  0
 15 16  2  0
 16 17  1  0
 16 18  1  0
 18 19  1  0
 19 20  2  0
 20 21  1  0
 21 22  1  0
 21 23  2  0
 23 24  1  0
 24 25  2  0
 25 26  1  0
 25 27  1  0
 27 28  1  0
 28 29  1  0
 28 30  1  0
 27 31  1  0
 31 32  2  0
 18 33  2  0
 11 34  1  0
 34 35  2  0
  6 36  1  0
 36 37  1  0
 37  3  1  0
 35  8  1  0
 33 13  1  0
 32 19  1  0
 31 23  1  0
  1 38  1  0
  1 39  1  0
  1 40  1  0
  2 41  1  0
  2 42  1  0
  4 43  1  0
  4 44  1  0
  5 45  1  0
  5 46  1  0
  7 47  1  0
  7 48  1  0
  9 49  1  0
 10 50  1  0
 12 51  1  0
 15 52  1  0
 20 53  1  0
 26 54  1  0
 26 55  1  0
 26 56  1  0
 28 57  1  0
 29 58  1  0
 29 59  1  0
 29 60  1  0
 30 61  1  0
 30 62  1  0
 30 63  1  0
 32 64  1  0
 35 65  1  0
 36 66  1  0
 36 67  1  0
 37 68  1  0
 37 69  1  0
M  END
>  <meeko>  (2) 
{"is_sidechain": [false], "free_energy": 0.006, "intermolecular_energy": 0.0, "internal_energy": -1.463}

$$$$
2mm3_Abemaciclib_out
     RDKit          3D

 69 73  0  0  0  0  0  0  0  0999 V2000
   11.5300   -9.9410   17.7670 C   0  0  0  0  0  0  0  0  0  0  0  0
   11.3770   -8.4320   17.8450 C   0  0  0  0  0  0  0  0  0  0  0  0
   10.6280   -7.9180   16.6990 N   0  0  0  0  0  0  0  0  0  0  0  0
   10.6670   -8.8700   15.5820 C   0  0  0  0  0  0  0  0  0  0  0  0
    9.8800   -8.3330   14.3810 C   0  0  0  0  0  0  0  0  0  0  0  0
    8.4910   -8.0370   14.7550 N   0  0  0  0  0  0  0  0  0  0  0  0
    7.7450   -7.5220   13.6100 C   0  0  0  0  0  0  0  0  0  0  0  0
    7.4040   -8.6110   12.6280 C   0  0  0  0  0  0  0  0  0  0  0  0
    7.8020   -8.5280   11.2970 C   0  0  0  0  0  0  0  0  0  0  0  0
    7.4740   -9.5520   10.4140 C   0  0  0  0  0  0  0  0  0  0  0  0
    6.7510  -10.6260   10.9070 C   0  0  0  0  0  0  0  0  0  0  0  0
    6.4250  -11.6610    9.9950 N   0  0  0  0  0  0  0  0  0  0  0  0
    6.9030  -12.9710    9.8400 C   0  0  0  0  0  0  0  0  0  0  0  0
    6.0780  -13.8450    9.2320 N   0  0  0  0  0  0  0  0  0  0  0  0
    6.5680  -15.0940    9.0990 C   0  0  0  0  0  0  0  0  0  0  0  0
    7.8170  -15.4790    9.5420 C   0  0  0  0  0  0  0  0  0  0  0  0
    8.2600  -16.7310    9.3880 F   0  0  0  0  0  0  0  0  0  0  0  0
    8.5660  -14.4910   10.1490 C   0  0  0  0  0  0  0  0  0  0  0  0
    9.8900  -14.7590   10.6570 C   0  0  0  0  0  0  0  0  0  0  0  0
   10.8910  -15.1780    9.7770 C   0  0  0  0  0  0  0  0  0  0  0  0
   12.1860  -15.4500   10.2350 C   0  0  0  0  0  0  0  0  0  0  0  0
   13.1360  -15.8490    9.3800 F   0  0  0  0  0  0  0  0  0  0  0  0
   12.4600  -15.2930   11.6040 C   0  0  0  0  0  0  0  0  0  0  0  0
   13.6310  -15.4910   12.3000 N   0  0  0  0  0  0  0  0  0  0  0  0
   13.3380  -15.2010   13.5480 C   0  0  0  0  0  0  0  0  0  0  0  0
   14.2720  -15.2590   14.6910 C   0  0  0  0  0  0  0  0  0  0  0  0
   12.0320  -14.8250   13.6930 N   0  0  0  0  0  0  0  0  0  0  0  0
   11.3850  -14.4420   14.9280 C   0  0  0  0  0  0  0  0  0  0  0  0
   10.1930  -15.3490   15.2440 C   0  0  0  0  0  0  0  0  0  0  0  0
   10.9600  -12.9700   14.9090 C   0  0  0  0  0  0  0  0  0  0  0  0
   11.4420  -14.8750   12.4560 C   0  0  0  0  0  0  0  0  0  0  0  0
   10.1450  -14.5980   12.0220 C   0  0  0  0  0  0  0  0  0  0  0  0
    8.1380  -13.2220   10.3140 N   0  0  0  0  0  0  0  0  0  0  0  0
    6.3450  -10.7410   12.1910 N   0  0  0  0  0  0  0  0  0  0  0  0
    6.6830   -9.7280   13.0210 C   0  0  0  0  0  0  0  0  0  0  0  0
    8.4530   -7.0860   15.8730 C   0  0  0  0  0  0  0  0  0  0  0  0
    9.2390   -7.6230   17.0740 C   0  0  0  0  0  0  0  0  0  0  0  0
   11.5723  -10.3583   18.7839 H   0  0  0  0  0  0  0  0  0  0  0  0
   10.6707  -10.3694   17.2303 H   0  0  0  0  0  0  0  0  0  0  0  0
   12.4578  -10.1882   17.2303 H   0  0  0  0  0  0  0  0  0  0  0  0
   10.8409   -8.1727   18.7699 H   0  0  0  0  0  0  0  0  0  0  0  0
   12.3793   -7.9788   17.8386 H   0  0  0  0  0  0  0  0  0  0  0  0
   11.7131   -9.0333   15.2837 H   0  0  0  0  0  0  0  0  0  0  0  0
   10.2098   -9.8156   15.9087 H   0  0  0  0  0  0  0  0  0  0  0  0
   10.3597   -7.4117   14.0188 H   0  0  0  0  0  0  0  0  0  0  0  0
    9.8760   -9.0996   13.5921 H   0  0  0  0  0  0  0  0  0  0  0  0
    6.8126   -7.0628   13.9701 H   0  0  0  0  0  0  0  0  0  0  0  0
    8.3768   -6.7834   13.0950 H   0  0  0  0  0  0  0  0  0  0  0  0
    8.3734   -7.6566   10.9446 H   0  0  0  0  0  0  0  0  0  0  0  0
    7.7791   -9.5101    9.3580 H   0  0  0  0  0  0  0  0  0  0  0  0
    5.7080  -11.4200    9.3180 H   0  0  0  0  0  0  0  0  0  0  0  0
    5.9360  -15.8495    8.6093 H   0  0  0  0  0  0  0  0  0  0  0  0
   10.6583  -15.2960    8.7084 H   0  0  0  0  0  0  0  0  0  0  0  0
   13.7029  -15.2237   15.6317 H   0  0  0  0  0  0  0  0  0  0  0  0
   14.8486  -16.1947   14.6462 H   0  0  0  0  0  0  0  0  0  0  0  0
   14.9600  -14.4018   14.6462 H   0  0  0  0  0  0  0  0  0  0  0  0
   12.1257  -14.5677   15.7315 H   0  0  0  0  0  0  0  0  0  0  0  0
   10.0779  -15.4366   16.3344 H   0  0  0  0  0  0  0  0  0  0  0  0
    9.2784  -14.9163   14.8123 H   0  0  0  0  0  0  0  0  0  0  0  0
   10.3662  -16.3458   14.8123 H   0  0  0  0  0  0  0  0  0  0  0  0
   10.8547  -12.6054   15.9415 H   0  0  0  0  0  0  0  0  0  0  0  0
   11.7230  -12.3748   14.3859 H   0  0  0  0  0  0  0  0  0  0  0  0
    9.9972  -12.8731   14.3859 H   0  0  0  0  0  0  0  0  0  0  0  0
    9.3612  -14.2689   12.7202 H   0  0  0  0  0  0  0  0  0  0  0  0
    6.3664   -9.7945   14.0724 H   0  0  0  0  0  0  0  0  0  0  0  0
    8.8958   -6.1323   15.5499 H   0  0  0  0  0  0  0  0  0  0  0  0
    7.4054   -6.9401   16.1751 H   0  0  0  0  0  0  0  0  0  0  0  0
    9.2341   -6.8686   17.8746 H   0  0  0  0  0  0  0  0  0  0  0  0
    8.7625   -8.5521   17.4201 H   0  0  0  0  0  0  0  0  0  0  0  0
  1  2  1  0
  2  3  1  0
  3  4  1  0
  4  5  1  0
  5  6  1  0
  6  7  1  0
  7  8  1  0
  8  9  2  0
  9 10  1  0
 10 11  2  0
 11 12  1  0
 12 13  1  0
 13 14  2  0
 14 15  1  0
 15 16  2  0
 16 17  1  0
 16 18  1  0
 18 19  1  0
 19 20  2  0
 20 21  1  0
 21 22  1  0
 21 23  2  0
 23 24  1  0
 24 25  2  0
 25 26  1  0
 25 27  1  0
 27 28  1  0
 28 29  1  0
 28 30  1  0
 27 31  1  0
 31 32  2  0
 18 33  2  0
 11 34  1  0
 34 35  2  0
  6 36  1  0
 36 37  1  0
 37  3  1  0
 35  8  1  0
 33 13  1  0
 32 19  1  0
 31 23  1  0
  1 38  1  0
  1 39  1  0
  1 40  1  0
  2 41  1  0
  2 42  1  0
  4 43  1  0
  4 44  1  0
  5 45  1  0
  5 46  1  0
  7 47  1  0
  7 48  1  0
  9 49  1  0
 10 50  1  0
 12 51  1  0
 15 52  1  0
 20 53  1  0
 26 54  1  0
 26 55  1  0
 26 56  1  0
 28 57  1  0
 29 58  1  0
 29 59  1  0
 29 60  1  0
 30 61  1  0
 30 62  1  0
 30 63  1  0
 32 64  1  0
 35 65  1  0
 36 66  1  0
 36 67  1  0
 37 68  1  0
 37 69  1  0
M  END
>  <meeko>  (3) 
{"is_sidechain": [false], "free_energy": 0.006, "intermolecular_energy": 0.0, "internal_energy": -1.463}

$$$$
2mm3_Abemaciclib_out
     RDKit          3D

 69 73  0  0  0  0  0  0  0  0999 V2000
   15.4990  -10.7420   16.4100 C   0  0  0  0  0  0  0  0  0  0  0  0
   15.8200   -9.2600   16.3230 C   0  0  0  0  0  0  0  0  0  0  0  0
   14.7940   -8.5420   15.5680 N   0  0  0  0  0  0  0  0  0  0  0  0
   15.3230   -8.0790   14.2800 C   0  0  0  0  0  0  0  0  0  0  0  0
   14.2470   -7.3280   13.4870 C   0  0  0  0  0  0  0  0  0  0  0  0
   13.0630   -8.1720   13.2820 N   0  0  0  0  0  0  0  0  0  0  0  0
   12.0380   -7.4540   12.5290 C   0  0  0  0  0  0  0  0  0  0  0  0
   11.0090   -8.3880   11.9500 C   0  0  0  0  0  0  0  0  0  0  0  0
    9.6580   -8.2400   12.2450 C   0  0  0  0  0  0  0  0  0  0  0  0
    8.7310   -9.1180   11.6930 C   0  0  0  0  0  0  0  0  0  0  0  0
    9.2040  -10.1200   10.8600 C   0  0  0  0  0  0  0  0  0  0  0  0
    8.2470  -11.0050   10.3040 N   0  0  0  0  0  0  0  0  0  0  0  0
    7.9070  -12.3360   10.5960 C   0  0  0  0  0  0  0  0  0  0  0  0
    7.2930  -13.0280    9.6180 N   0  0  0  0  0  0  0  0  0  0  0  0
    6.9810  -14.3030    9.9310 C   0  0  0  0  0  0  0  0  0  0  0  0
    7.2580  -14.8820   11.1520 C   0  0  0  0  0  0  0  0  0  0  0  0
    6.9300  -16.1510   11.4170 F   0  0  0  0  0  0  0  0  0  0  0  0
    7.8900  -14.0670   12.0700 C   0  0  0  0  0  0  0  0  0  0  0  0
    8.2380  -14.5480   13.3850 C   0  0  0  0  0  0  0  0  0  0  0  0
    7.2230  -14.9140   14.2730 C   0  0  0  0  0  0  0  0  0  0  0  0
    7.5240  -15.3830   15.5580 C   0  0  0  0  0  0  0  0  0  0  0  0
    6.5410  -15.7320   16.3980 F   0  0  0  0  0  0  0  0  0  0  0  0
    8.8730  -15.4770   15.9390 C   0  0  0  0  0  0  0  0  0  0  0  0
    9.4300  -15.9000   17.1250 N   0  0  0  0  0  0  0  0  0  0  0  0
   10.7280  -15.7890   16.9500 C   0  0  0  0  0  0  0  0  0  0  0  0
   11.7660  -16.1240   17.9450 C   0  0  0  0  0  0  0  0  0  0  0  0
   11.0380  -15.3140   15.7060 N   0  0  0  0  0  0  0  0  0  0  0  0
   12.3670  -15.0740   15.1890 C   0  0  0  0  0  0  0  0  0  0  0  0
   12.6070  -13.5860   14.9220 C   0  0  0  0  0  0  0  0  0  0  0  0
   12.6410  -15.9060   13.9320 C   0  0  0  0  0  0  0  0  0  0  0  0
    9.8610  -15.1040   15.0330 C   0  0  0  0  0  0  0  0  0  0  0  0
    9.5860  -14.6350   13.7480 C   0  0  0  0  0  0  0  0  0  0  0  0
    8.2310  -12.7850   11.8240 N   0  0  0  0  0  0  0  0  0  0  0  0
   10.5080  -10.2960   10.5510 N   0  0  0  0  0  0  0  0  0  0  0  0
   11.3790   -9.4230   11.1060 C   0  0  0  0  0  0  0  0  0  0  0  0
   12.5350   -8.6360   14.5710 C   0  0  0  0  0  0  0  0  0  0  0  0
   13.6100   -9.3870   15.3630 C   0  0  0  0  0  0  0  0  0  0  0  0
   15.4341  -11.0417   17.4664 H   0  0  0  0  0  0  0  0  0  0  0  0
   14.5374  -10.9387   15.9133 H   0  0  0  0  0  0  0  0  0  0  0  0
   16.2930  -11.3189   15.9133 H   0  0  0  0  0  0  0  0  0  0  0  0
   15.8747   -8.8441   17.3399 H   0  0  0  0  0  0  0  0  0  0  0  0
   16.7826   -9.1412   15.8041 H   0  0  0  0  0  0  0  0  0  0  0  0
   16.1736   -7.4054   14.4608 H   0  0  0  0  0  0  0  0  0  0  0  0
   15.6445   -8.9541   13.6961 H   0  0  0  0  0  0  0  0  0  0  0  0
   13.9540   -6.4253   14.0431 H   0  0  0  0  0  0  0  0  0  0  0  0
   14.6598   -7.0565   12.5042 H   0  0  0  0  0  0  0  0  0  0  0  0
   11.5350   -6.7435   13.2014 H   0  0  0  0  0  0  0  0  0  0  0  0
   12.5306   -6.9310   11.6961 H   0  0  0  0  0  0  0  0  0  0  0  0
    9.3238   -7.4318   12.9122 H   0  0  0  0  0  0  0  0  0  0  0  0
    7.6571   -9.0203   11.9105 H   0  0  0  0  0  0  0  0  0  0  0  0
    7.6930  -10.6140    9.5490 H   0  0  0  0  0  0  0  0  0  0  0  0
    6.4770  -14.9156    9.1690 H   0  0  0  0  0  0  0  0  0  0  0  0
    6.1722  -14.8326   13.9582 H   0  0  0  0  0  0  0  0  0  0  0  0
   11.3586  -15.9925   18.9583 H   0  0  0  0  0  0  0  0  0  0  0  0
   12.0805  -17.1693   17.8090 H   0  0  0  0  0  0  0  0  0  0  0  0
   12.6322  -15.4598   17.8090 H   0  0  0  0  0  0  0  0  0  0  0  0
   13.0775  -15.3944   15.9652 H   0  0  0  0  0  0  0  0  0  0  0  0
   12.6933  -13.0510   15.8792 H   0  0  0  0  0  0  0  0  0  0  0  0
   13.5368  -13.4619   14.3474 H   0  0  0  0  0  0  0  0  0  0  0  0
   11.7634  -13.1758   14.3474 H   0  0  0  0  0  0  0  0  0  0  0  0
   12.9727  -16.9133   14.2241 H   0  0  0  0  0  0  0  0  0  0  0  0
   11.7204  -15.9820   13.3347 H   0  0  0  0  0  0  0  0  0  0  0  0
   13.4266  -15.4201   13.3347 H   0  0  0  0  0  0  0  0  0  0  0  0
   10.3900  -14.3477   13.0544 H   0  0  0  0  0  0  0  0  0  0  0  0
   12.4475   -9.5418   10.8731 H   0  0  0  0  0  0  0  0  0  0  0  0
   12.1975   -7.7675   15.1557 H   0  0  0  0  0  0  0  0  0  0  0  0
   11.6953   -9.3207   14.3812 H   0  0  0  0  0  0  0  0  0  0  0  0
   13.2001   -9.6768   16.3418 H   0  0  0  0  0  0  0  0  0  0  0  0
   13.9085  -10.2792   14.7930 H   0  0  0  0  0  0  0  0  0  0  0  0
  1  2  1  0
  2  3  1  0
  3  4  1  0
  4  5  1  0
  5  6  1  0
  6  7  1  0
  7  8  1  0
  8  9  2  0
  9 10  1  0
 10 11  2  0
 11 12  1  0
 12 13  1  0
 13 14  2  0
 14 15  1  0
 15 16  2  0
 16 17  1  0
 16 18  1  0
 18 19  1  0
 19 20  2  0
 20 21  1  0
 21 22  1  0
 21 23  2  0
 23 24  1  0
 24 25  2  0
 25 26  1  0
 25 27  1  0
 27 28  1  0
 28 29  1  0
 28 30  1  0
 27 31  1  0
 31 32  2  0
 18 33  2  0
 11 34  1  0
 34 35  2  0
  6 36  1  0
 36 37  1  0
 37  3  1  0
 35  8  1  0
 33 13  1  0
 32 19  1  0
 31 23  1  0
  1 38  1  0
  1 39  1  0
  1 40  1  0
  2 41  1  0
  2 42  1  0
  4 43  1  0
  4 44  1  0
  5 45  1  0
  5 46  1  0
  7 47  1  0
  7 48  1  0
  9 49  1  0
 10 50  1  0
 12 51  1  0
 15 52  1  0
 20 53  1  0
 26 54  1  0
 26 55  1  0
 26 56  1  0
 28 57  1  0
 29 58  1  0
 29 59  1  0
 29 60  1  0
 30 61  1  0
 30 62  1  0
 30 63  1  0
 32 64  1  0
 35 65  1  0
 36 66  1  0
 36 67  1  0
 37 68  1  0
 37 69  1  0
M  END
>  <meeko>  (4) 
{"is_sidechain": [false], "free_energy": 0.006, "intermolecular_energy": 0.0, "internal_energy": -1.462}

$$$$
2mm3_Abemaciclib_out
     RDKit          3D

 69 73  0  0  0  0  0  0  0  0999 V2000
   13.1580   -7.8080   14.4780 C   0  0  0  0  0  0  0  0  0  0  0  0
   12.9930   -7.5620   15.9670 C   0  0  0  0  0  0  0  0  0  0  0  0
   12.3340   -8.6920   16.6190 N   0  0  0  0  0  0  0  0  0  0  0  0
   11.0260   -8.2940   17.1550 C   0  0  0  0  0  0  0  0  0  0  0  0
   10.3330   -9.4800   17.8370 C   0  0  0  0  0  0  0  0  0  0  0  0
   10.1850  -10.6050   16.9060 N   0  0  0  0  0  0  0  0  0  0  0  0
    9.5280  -11.7350   17.5590 C   0  0  0  0  0  0  0  0  0  0  0  0
    8.9720  -12.7140   16.5590 C   0  0  0  0  0  0  0  0  0  0  0  0
    8.0600  -12.3090   15.5890 C   0  0  0  0  0  0  0  0  0  0  0  0
    7.5660  -13.2370   14.6770 C   0  0  0  0  0  0  0  0  0  0  0  0
    8.0100  -14.5450   14.7790 C   0  0  0  0  0  0  0  0  0  0  0  0
    7.4980  -15.4780   13.8430 N   0  0  0  0  0  0  0  0  0  0  0  0
    7.7730  -15.7040   12.4850 C   0  0  0  0  0  0  0  0  0  0  0  0
    6.7790  -16.2410   11.7510 N   0  0  0  0  0  0  0  0  0  0  0  0
    7.0770  -16.4440   10.4510 C   0  0  0  0  0  0  0  0  0  0  0  0
    8.2970  -16.1350    9.8870 C   0  0  0  0  0  0  0  0  0  0  0  0
    8.5450  -16.3550    8.5910 F   0  0  0  0  0  0  0  0  0  0  0  0
    9.2310  -15.5900   10.7440 C   0  0  0  0  0  0  0  0  0  0  0  0
   10.5470  -15.2210   10.2820 C   0  0  0  0  0  0  0  0  0  0  0  0
   11.4120  -16.2100    9.8090 C   0  0  0  0  0  0  0  0  0  0  0  0
   12.6980  -15.8870    9.3550 C   0  0  0  0  0  0  0  0  0  0  0  0
   13.5160  -16.8470    8.9030 F   0  0  0  0  0  0  0  0  0  0  0  0
   13.1010  -14.5430    9.3860 C   0  0  0  0  0  0  0  0  0  0  0  0
   14.2930  -13.9680    9.0030 N   0  0  0  0  0  0  0  0  0  0  0  0
   14.1430  -12.6840    9.2400 C   0  0  0  0  0  0  0  0  0  0  0  0
   15.1530  -11.6350    8.9930 C   0  0  0  0  0  0  0  0  0  0  0  0
   12.9100  -12.4000    9.7580 N   0  0  0  0  0  0  0  0  0  0  0  0
   12.4200  -11.0910   10.1310 C   0  0  0  0  0  0  0  0  0  0  0  0
   12.1600  -10.9950   11.6360 C   0  0  0  0  0  0  0  0  0  0  0  0
   11.1670  -10.7120    9.3360 C   0  0  0  0  0  0  0  0  0  0  0  0
   12.2170  -13.5800    9.8630 C   0  0  0  0  0  0  0  0  0  0  0  0
   10.9330  -13.8770   10.3190 C   0  0  0  0  0  0  0  0  0  0  0  0
    9.0010  -15.3600   12.0530 N   0  0  0  0  0  0  0  0  0  0  0  0
    8.8930  -14.9760   15.7080 N   0  0  0  0  0  0  0  0  0  0  0  0
    9.3520  -14.0460   16.5760 C   0  0  0  0  0  0  0  0  0  0  0  0
   11.4930  -11.0020   16.3690 C   0  0  0  0  0  0  0  0  0  0  0  0
   12.1850   -9.8180   15.6870 C   0  0  0  0  0  0  0  0  0  0  0  0
   13.7644   -8.7122   14.3207 H   0  0  0  0  0  0  0  0  0  0  0  0
   12.1687   -7.9453   14.0172 H   0  0  0  0  0  0  0  0  0  0  0  0
   13.6605   -6.9447   14.0172 H   0  0  0  0  0  0  0  0  0  0  0  0
   13.9852   -7.4158   16.4187 H   0  0  0  0  0  0  0  0  0  0  0  0
   12.3685   -6.6671   16.1053 H   0  0  0  0  0  0  0  0  0  0  0  0
   11.1676   -7.4878   17.8899 H   0  0  0  0  0  0  0  0  0  0  0  0
   10.3948   -7.9476   16.3234 H   0  0  0  0  0  0  0  0  0  0  0  0
   10.9357   -9.8024   18.6989 H   0  0  0  0  0  0  0  0  0  0  0  0
    9.3328   -9.1615   18.1658 H   0  0  0  0  0  0  0  0  0  0  0  0
   10.2605  -12.2534   18.1952 H   0  0  0  0  0  0  0  0  0  0  0  0
    8.6909  -11.3446   18.1564 H   0  0  0  0  0  0  0  0  0  0  0  0
    7.7311  -11.2603   15.5433 H   0  0  0  0  0  0  0  0  0  0  0  0
    6.8459  -12.9411   13.8999 H   0  0  0  0  0  0  0  0  0  0  0  0
    6.7960  -16.1110   14.2140 H   0  0  0  0  0  0  0  0  0  0  0  0
    6.3024  -16.8811    9.8037 H   0  0  0  0  0  0  0  0  0  0  0  0
   11.0790  -17.2583    9.7925 H   0  0  0  0  0  0  0  0  0  0  0  0
   15.5240  -11.2496    9.9542 H   0  0  0  0  0  0  0  0  0  0  0  0
   15.9906  -12.0600    8.4204 H   0  0  0  0  0  0  0  0  0  0  0  0
   14.6966  -10.8141    8.4204 H   0  0  0  0  0  0  0  0  0  0  0  0
   13.2098  -10.3677    9.8798 H   0  0  0  0  0  0  0  0  0  0  0  0
   13.0545  -11.3253   12.1844 H   0  0  0  0  0  0  0  0  0  0  0  0
   11.9304   -9.9528   11.9027 H   0  0  0  0  0  0  0  0  0  0  0  0
   11.3082  -11.6379   11.9027 H   0  0  0  0  0  0  0  0  0  0  0  0
   10.3517  -10.4654   10.0321 H   0  0  0  0  0  0  0  0  0  0  0  0
   11.3847   -9.8395    8.7025 H   0  0  0  0  0  0  0  0  0  0  0  0
   10.8646  -11.5589    8.7025 H   0  0  0  0  0  0  0  0  0  0  0  0
   10.2567  -13.0926   10.6897 H   0  0  0  0  0  0  0  0  0  0  0  0
   10.0718  -14.3673   17.3432 H   0  0  0  0  0  0  0  0  0  0  0  0
   12.1260  -11.3636   17.1928 H   0  0  0  0  0  0  0  0  0  0  0  0
   11.3410  -11.7972   15.6243 H   0  0  0  0  0  0  0  0  0  0  0  0
   13.1803  -10.1331   15.3404 H   0  0  0  0  0  0  0  0  0  0  0  0
   11.5683   -9.4919   14.8365 H   0  0  0  0  0  0  0  0  0  0  0  0
  1  2  1  0
  2  3  1  0
  3  4  1  0
  4  5  1  0
  5  6  1  0
  6  7  1  0
  7  8  1  0
  8  9  2  0
  9 10  1  0
 10 11  2  0
 11 12  1  0
 12 13  1  0
 13 14  2  0
 14 15  1  0
 15 16  2  0
 16 17  1  0
 16 18  1  0
 18 19  1  0
 19 20  2  0
 20 21  1  0
 21 22  1  0
 21 23  2  0
 23 24  1  0
 24 25  2  0
 25 26  1  0
 25 27  1  0
 27 28  1  0
 28 29  1  0
 28 30  1  0
 27 31  1  0
 31 32  2  0
 18 33  2  0
 11 34  1  0
 34 35  2  0
  6 36  1  0
 36 37  1  0
 37  3  1  0
 35  8  1  0
 33 13  1  0
 32 19  1  0
 31 23  1  0
  1 38  1  0
  1 39  1  0
  1 40  1  0
  2 41  1  0
  2 42  1  0
  4 43  1  0
  4 44  1  0
  5 45  1  0
  5 46  1  0
  7 47  1  0
  7 48  1  0
  9 49  1  0
 10 50  1  0
 12 51  1  0
 15 52  1  0
 20 53  1  0
 26 54  1  0
 26 55  1  0
 26 56  1  0
 28 57  1  0
 29 58  1  0
 29 59  1  0
 29 60  1  0
 30 61  1  0
 30 62  1  0
 30 63  1  0
 32 64  1  0
 35 65  1  0
 36 66  1  0
 36 67  1  0
 37 68  1  0
 37 69  1  0
M  END
>  <meeko>  (5) 
{"is_sidechain": [false], "free_energy": 0.008, "intermolecular_energy": 0.0, "internal_energy": -1.46}

$$$$
2mm3_Abemaciclib_out
     RDKit          3D

 69 73  0  0  0  0  0  0  0  0999 V2000
   12.7780  -12.2750   17.6310 C   0  0  0  0  0  0  0  0  0  0  0  0
   14.2960  -12.3290   17.6590 C   0  0  0  0  0  0  0  0  0  0  0  0
   14.8350  -12.6800   16.3460 N   0  0  0  0  0  0  0  0  0  0  0  0
   15.4730  -14.0020   16.3800 C   0  0  0  0  0  0  0  0  0  0  0  0
   16.0360  -14.3710   15.0030 C   0  0  0  0  0  0  0  0  0  0  0  0
   14.9840  -14.3350   13.9800 N   0  0  0  0  0  0  0  0  0  0  0  0
   15.5240  -14.6840   12.6680 C   0  0  0  0  0  0  0  0  0  0  0  0
   14.4380  -15.0770   11.7020 C   0  0  0  0  0  0  0  0  0  0  0  0
   14.2880  -14.4190   10.4850 C   0  0  0  0  0  0  0  0  0  0  0  0
   13.2770  -14.8070    9.6120 C   0  0  0  0  0  0  0  0  0  0  0  0
   12.4490  -15.8480   10.0000 C   0  0  0  0  0  0  0  0  0  0  0  0
   11.4240  -16.2320    9.0990 N   0  0  0  0  0  0  0  0  0  0  0  0
   10.0360  -16.0230    9.1000 C   0  0  0  0  0  0  0  0  0  0  0  0
    9.2990  -16.8760    8.3630 N   0  0  0  0  0  0  0  0  0  0  0  0
    7.9700  -16.6470    8.3870 C   0  0  0  0  0  0  0  0  0  0  0  0
    7.3800  -15.6250    9.1020 C   0  0  0  0  0  0  0  0  0  0  0  0
    6.0560  -15.4380    9.0950 F   0  0  0  0  0  0  0  0  0  0  0  0
    8.2440  -14.8200    9.8170 C   0  0  0  0  0  0  0  0  0  0  0  0
    7.7590  -13.7160   10.6090 C   0  0  0  0  0  0  0  0  0  0  0  0
    7.1300  -12.6410    9.9760 C   0  0  0  0  0  0  0  0  0  0  0  0
    6.6490  -11.5520   10.7130 C   0  0  0  0  0  0  0  0  0  0  0  0
    6.0470  -10.5290   10.0930 F   0  0  0  0  0  0  0  0  0  0  0  0
    6.8120  -11.5620   12.1080 C   0  0  0  0  0  0  0  0  0  0  0  0
    6.4350  -10.6300   13.0500 N   0  0  0  0  0  0  0  0  0  0  0  0
    6.8260  -11.1320   14.2000 C   0  0  0  0  0  0  0  0  0  0  0  0
    6.6470  -10.5010   15.5230 C   0  0  0  0  0  0  0  0  0  0  0  0
    7.4380  -12.3450   14.0480 N   0  0  0  0  0  0  0  0  0  0  0  0
    7.9830  -13.1650   15.1060 C   0  0  0  0  0  0  0  0  0  0  0  0
    9.5040  -13.2950   14.9910 C   0  0  0  0  0  0  0  0  0  0  0  0
    7.3190  -14.5450   15.1480 C   0  0  0  0  0  0  0  0  0  0  0  0
    7.4430  -12.6470   12.7100 C   0  0  0  0  0  0  0  0  0  0  0  0
    7.9290  -13.7420   11.9970 C   0  0  0  0  0  0  0  0  0  0  0  0
    9.5820  -14.9920    9.8390 N   0  0  0  0  0  0  0  0  0  0  0  0
   12.5630  -16.5100   11.1740 N   0  0  0  0  0  0  0  0  0  0  0  0
   13.5580  -16.1060   11.9960 C   0  0  0  0  0  0  0  0  0  0  0  0
   14.3460  -13.0140   13.9470 C   0  0  0  0  0  0  0  0  0  0  0  0
   13.7820  -12.6450   15.3230 C   0  0  0  0  0  0  0  0  0  0  0  0
   12.3925  -12.2613   18.6612 H   0  0  0  0  0  0  0  0  0  0  0  0
   12.4531  -11.3647   17.1058 H   0  0  0  0  0  0  0  0  0  0  0  0
   12.3892  -13.1599   17.1058 H   0  0  0  0  0  0  0  0  0  0  0  0
   14.6850  -11.3437   17.9552 H   0  0  0  0  0  0  0  0  0  0  0  0
   14.6047  -13.0997   18.3806 H   0  0  0  0  0  0  0  0  0  0  0  0
   16.2932  -13.9877   17.1128 H   0  0  0  0  0  0  0  0  0  0  0  0
   14.7183  -14.7502   16.6641 H   0  0  0  0  0  0  0  0  0  0  0  0
   16.8256  -13.6543   14.7329 H   0  0  0  0  0  0  0  0  0  0  0  0
   16.4436  -15.3915   15.0520 H   0  0  0  0  0  0  0  0  0  0  0  0
   16.0636  -13.8154   12.2627 H   0  0  0  0  0  0  0  0  0  0  0  0
   16.1972  -15.5448   12.7937 H   0  0  0  0  0  0  0  0  0  0  0  0
   14.9658  -13.5959   10.2147 H   0  0  0  0  0  0  0  0  0  0  0  0
   13.1392  -14.3032    8.6439 H   0  0  0  0  0  0  0  0  0  0  0  0
   11.7430  -16.7590    8.2930 H   0  0  0  0  0  0  0  0  0  0  0  0
    7.3187  -17.3137    7.8027 H   0  0  0  0  0  0  0  0  0  0  0  0
    7.0109  -12.6503    8.8825 H   0  0  0  0  0  0  0  0  0  0  0  0
    6.8561  -11.2382   16.3122 H   0  0  0  0  0  0  0  0  0  0  0  0
    7.3398   -9.6523   15.6212 H   0  0  0  0  0  0  0  0  0  0  0  0
    5.6117  -10.1425   15.6212 H   0  0  0  0  0  0  0  0  0  0  0  0
    7.7602  -12.6558   16.0552 H   0  0  0  0  0  0  0  0  0  0  0  0
    9.9459  -13.3328   15.9976 H   0  0  0  0  0  0  0  0  0  0  0  0
    9.7530  -14.2177   14.4464 H   0  0  0  0  0  0  0  0  0  0  0  0
    9.9060  -12.4279   14.4464 H   0  0  0  0  0  0  0  0  0  0  0  0
    7.1724  -14.8497   16.1948 H   0  0  0  0  0  0  0  0  0  0  0  0
    6.3446  -14.4987   14.6397 H   0  0  0  0  0  0  0  0  0  0  0  0
    7.9632  -15.2775   14.6397 H   0  0  0  0  0  0  0  0  0  0  0  0
    8.4224  -14.5857   12.5017 H   0  0  0  0  0  0  0  0  0  0  0  0
   13.6760  -16.6267   12.9578 H   0  0  0  0  0  0  0  0  0  0  0  0
   15.0911  -12.2615   13.6495 H   0  0  0  0  0  0  0  0  0  0  0  0
   13.5179  -13.0415   13.2235 H   0  0  0  0  0  0  0  0  0  0  0  0
   13.3566  -11.6316   15.2782 H   0  0  0  0  0  0  0  0  0  0  0  0
   13.0050  -13.3755   15.5924 H   0  0  0  0  0  0  0  0  0  0  0  0
  1  2  1  0
  2  3  1  0
  3  4  1  0
  4  5  1  0
  5  6  1  0
  6  7  1  0
  7  8  1  0
  8  9  2  0
  9 10  1  0
 10 11  2  0
 11 12  1  0
 12 13  1  0
 13 14  2  0
 14 15  1  0
 15 16  2  0
 16 17  1  0
 16 18  1  0
 18 19  1  0
 19 20  2  0
 20 21  1  0
 21 22  1  0
 21 23  2  0
 23 24  1  0
 24 25  2  0
 25 26  1  0
 25 27  1  0
 27 28  1  0
 28 29  1  0
 28 30  1  0
 27 31  1  0
 31 32  2  0
 18 33  2  0
 11 34  1  0
 34 35  2  0
  6 36  1  0
 36 37  1  0
 37  3  1  0
 35  8  1  0
 33 13  1  0
 32 19  1  0
 31 23  1  0
  1 38  1  0
  1 39  1  0
  1 40  1  0
  2 41  1  0
  2 42  1  0
  4 43  1  0
  4 44  1  0
  5 45  1  0
  5 46  1  0
  7 47  1  0
  7 48  1  0
  9 49  1  0
 10 50  1  0
 12 51  1  0
 15 52  1  0
 20 53  1  0
 26 54  1  0
 26 55  1  0
 26 56  1  0
 28 57  1  0
 29 58  1  0
 29 59  1  0
 29 60  1  0
 30 61  1  0
 30 62  1  0
 30 63  1  0
 32 64  1  0
 35 65  1  0
 36 66  1  0
 36 67  1  0
 37 68  1  0
 37 69  1  0
M  END
>  <meeko>  (6) 
{"is_sidechain": [false], "free_energy": 0.008, "intermolecular_energy": 0.0, "internal_energy": -1.46}

$$$$
2mm3_Abemaciclib_out
     RDKit          3D

 69 73  0  0  0  0  0  0  0  0999 V2000
   11.4600  -15.9030   10.3760 C   0  0  0  0  0  0  0  0  0  0  0  0
   10.7410  -16.1450    9.0610 C   0  0  0  0  0  0  0  0  0  0  0  0
    9.7520  -15.1000    8.8000 N   0  0  0  0  0  0  0  0  0  0  0  0
    8.3890  -15.6330    8.9090 C   0  0  0  0  0  0  0  0  0  0  0  0
    7.3510  -14.5380    8.6400 C   0  0  0  0  0  0  0  0  0  0  0  0
    7.5340  -13.4060    9.5570 N   0  0  0  0  0  0  0  0  0  0  0  0
    6.5470  -12.3620    9.2950 C   0  0  0  0  0  0  0  0  0  0  0  0
    6.4310  -11.3990   10.4470 C   0  0  0  0  0  0  0  0  0  0  0  0
    6.6280  -10.0340   10.2630 C   0  0  0  0  0  0  0  0  0  0  0  0
    6.5110   -9.1690   11.3460 C   0  0  0  0  0  0  0  0  0  0  0  0
    6.2010   -9.7150   12.5810 C   0  0  0  0  0  0  0  0  0  0  0  0
    6.0850   -8.8200   13.6750 N   0  0  0  0  0  0  0  0  0  0  0  0
    6.9250   -8.5440   14.7650 C   0  0  0  0  0  0  0  0  0  0  0  0
    6.3380   -8.0250   15.8600 N   0  0  0  0  0  0  0  0  0  0  0  0
    7.1730   -7.7730   16.8890 C   0  0  0  0  0  0  0  0  0  0  0  0
    8.5310   -8.0170   16.8520 C   0  0  0  0  0  0  0  0  0  0  0  0
    9.3190   -7.7510   17.8990 F   0  0  0  0  0  0  0  0  0  0  0  0
    9.0100   -8.5500   15.6720 C   0  0  0  0  0  0  0  0  0  0  0  0
   10.4100   -8.8550   15.5020 C   0  0  0  0  0  0  0  0  0  0  0  0
   11.3440   -7.8160   15.5030 C   0  0  0  0  0  0  0  0  0  0  0  0
   12.7100   -8.0760   15.3370 C   0  0  0  0  0  0  0  0  0  0  0  0
   13.5950   -7.0700   15.3420 F   0  0  0  0  0  0  0  0  0  0  0  0
   13.1250   -9.4070   15.1680 C   0  0  0  0  0  0  0  0  0  0  0  0
   14.3880   -9.9250   14.9890 N   0  0  0  0  0  0  0  0  0  0  0  0
   14.2120  -11.2230   14.8840 C   0  0  0  0  0  0  0  0  0  0  0  0
   15.2770  -12.2260   14.6790 C   0  0  0  0  0  0  0  0  0  0  0  0
   12.8940  -11.5710   14.9870 N   0  0  0  0  0  0  0  0  0  0  0  0
   12.3560  -12.9110   14.9150 C   0  0  0  0  0  0  0  0  0  0  0  0
   11.4610  -13.0940   13.6870 C   0  0  0  0  0  0  0  0  0  0  0  0
   11.6060  -13.2860   16.1970 C   0  0  0  0  0  0  0  0  0  0  0  0
   12.1700  -10.4200   15.1700 C   0  0  0  0  0  0  0  0  0  0  0  0
   10.8050  -10.1860   15.3340 C   0  0  0  0  0  0  0  0  0  0  0  0
    8.2320   -8.8280   14.6060 N   0  0  0  0  0  0  0  0  0  0  0  0
    6.0030  -11.0340   12.7980 N   0  0  0  0  0  0  0  0  0  0  0  0
    6.1240  -11.8440   11.7220 C   0  0  0  0  0  0  0  0  0  0  0  0
    8.8980  -12.8730    9.4480 C   0  0  0  0  0  0  0  0  0  0  0  0
    9.9350  -13.9680    9.7190 C   0  0  0  0  0  0  0  0  0  0  0  0
   10.7823  -16.1311   11.2118 H   0  0  0  0  0  0  0  0  0  0  0  0
   12.3459  -16.5525   10.4345 H   0  0  0  0  0  0  0  0  0  0  0  0
   11.7728  -14.8500   10.4345 H   0  0  0  0  0  0  0  0  0  0  0  0
   11.4785  -16.1532    8.2449 H   0  0  0  0  0  0  0  0  0  0  0  0
   10.2194  -17.1116    9.1215 H   0  0  0  0  0  0  0  0  0  0  0  0
    8.2585  -16.4414    8.1745 H   0  0  0  0  0  0  0  0  0  0  0  0
    8.2412  -16.0145    9.9301 H   0  0  0  0  0  0  0  0  0  0  0  0
    7.4611  -14.1840    7.6044 H   0  0  0  0  0  0  0  0  0  0  0  0
    6.3471  -14.9591    8.7974 H   0  0  0  0  0  0  0  0  0  0  0  0
    6.8478  -11.8057    8.3950 H   0  0  0  0  0  0  0  0  0  0  0  0
    5.5687  -12.8446    9.1535 H   0  0  0  0  0  0  0  0  0  0  0  0
    6.8751   -9.6408    9.2658 H   0  0  0  0  0  0  0  0  0  0  0  0
    6.6599   -8.0858   11.2257 H   0  0  0  0  0  0  0  0  0  0  0  0
    5.2350   -8.2650   13.6810 H   0  0  0  0  0  0  0  0  0  0  0  0
    6.7473   -7.3488   17.8103 H   0  0  0  0  0  0  0  0  0  0  0  0
   11.0016   -6.7792   15.6360 H   0  0  0  0  0  0  0  0  0  0  0  0
   15.6461  -12.5736   15.6552 H   0  0  0  0  0  0  0  0  0  0  0  0
   14.8732  -13.0795   14.1146 H   0  0  0  0  0  0  0  0  0  0  0  0
   16.1047  -11.7718   14.1146 H   0  0  0  0  0  0  0  0  0  0  0  0
   13.2108  -13.5957   14.8123 H   0  0  0  0  0  0  0  0  0  0  0  0
   10.4314  -13.3045   14.0118 H   0  0  0  0  0  0  0  0  0  0  0  0
   11.4743  -12.1746   13.0833 H   0  0  0  0  0  0  0  0  0  0  0  0
   11.8341  -13.9344   13.0833 H   0  0  0  0  0  0  0  0  0  0  0  0
   12.2028  -12.9876   17.0715 H   0  0  0  0  0  0  0  0  0  0  0  0
   10.6367  -12.7665   16.2200 H   0  0  0  0  0  0  0  0  0  0  0  0
   11.4400  -14.3732   16.2200 H   0  0  0  0  0  0  0  0  0  0  0  0
   10.0745  -11.0084   15.3313 H   0  0  0  0  0  0  0  0  0  0  0  0
    5.9690  -12.9231   11.8685 H   0  0  0  0  0  0  0  0  0  0  0  0
    9.0498  -12.4761    8.4334 H   0  0  0  0  0  0  0  0  0  0  0  0
    9.0249  -12.0755   10.1949 H   0  0  0  0  0  0  0  0  0  0  0  0
   10.9437  -13.5513    9.5813 H   0  0  0  0  0  0  0  0  0  0  0  0
    9.8064  -14.3274   10.7506 H   0  0  0  0  0  0  0  0  0  0  0  0
  1  2  1  0
  2  3  1  0
  3  4  1  0
  4  5  1  0
  5  6  1  0
  6  7  1  0
  7  8  1  0
  8  9  2  0
  9 10  1  0
 10 11  2  0
 11 12  1  0
 12 13  1  0
 13 14  2  0
 14 15  1  0
 15 16  2  0
 16 17  1  0
 16 18  1  0
 18 19  1  0
 19 20  2  0
 20 21  1  0
 21 22  1  0
 21 23  2  0
 23 24  1  0
 24 25  2  0
 25 26  1  0
 25 27  1  0
 27 28  1  0
 28 29  1  0
 28 30  1  0
 27 31  1  0
 31 32  2  0
 18 33  2  0
 11 34  1  0
 34 35  2  0
  6 36  1  0
 36 37  1  0
 37  3  1  0
 35  8  1  0
 33 13  1  0
 32 19  1  0
 31 23  1  0
  1 38  1  0
  1 39  1  0
  1 40  1  0
  2 41  1  0
  2 42  1  0
  4 43  1  0
  4 44  1  0
  5 45  1  0
  5 46  1  0
  7 47  1  0
  7 48  1  0
  9 49  1  0
 10 50  1  0
 12 51  1  0
 15 52  1  0
 20 53  1  0
 26 54  1  0
 26 55  1  0
 26 56  1  0
 28 57  1  0
 29 58  1  0
 29 59  1  0
 29 60  1  0
 30 61  1  0
 30 62  1  0
 30 63  1  0
 32 64  1  0
 35 65  1  0
 36 66  1  0
 36 67  1  0
 37 68  1  0
 37 69  1  0
M  END
>  <meeko>  (7) 
{"is_sidechain": [false], "free_energy": 0.009, "intermolecular_energy": 0.0, "internal_energy": -1.458}

$$$$
2mm3_Abemaciclib_out
     RDKit          3D

 69 73  0  0  0  0  0  0  0  0999 V2000
    6.1150   -9.7570   12.6970 C   0  0  0  0  0  0  0  0  0  0  0  0
    5.9980   -8.3160   13.1620 C   0  0  0  0  0  0  0  0  0  0  0  0
    7.2600   -7.8410   13.7270 N   0  0  0  0  0  0  0  0  0  0  0  0
    7.1430   -7.6510   15.1780 C   0  0  0  0  0  0  0  0  0  0  0  0
    8.4670   -7.1560   15.7720 C   0  0  0  0  0  0  0  0  0  0  0  0
    9.5600   -8.0850   15.4620 N   0  0  0  0  0  0  0  0  0  0  0  0
   10.8210   -7.6080   16.0260 C   0  0  0  0  0  0  0  0  0  0  0  0
   11.8420   -8.7100   16.1260 C   0  0  0  0  0  0  0  0  0  0  0  0
   13.0940   -8.5840   15.5330 C   0  0  0  0  0  0  0  0  0  0  0  0
   14.0180   -9.6180   15.6460 C   0  0  0  0  0  0  0  0  0  0  0  0
   13.6420  -10.7490   16.3540 C   0  0  0  0  0  0  0  0  0  0  0  0
   14.5940  -11.7930   16.4600 N   0  0  0  0  0  0  0  0  0  0  0  0
   14.6570  -13.0770   15.8950 C   0  0  0  0  0  0  0  0  0  0  0  0
   15.3440  -14.0060   16.5880 N   0  0  0  0  0  0  0  0  0  0  0  0
   15.3840  -15.2280   16.0180 C   0  0  0  0  0  0  0  0  0  0  0  0
   14.7780  -15.5340   14.8180 C   0  0  0  0  0  0  0  0  0  0  0  0
   14.8450  -16.7620   14.2920 F   0  0  0  0  0  0  0  0  0  0  0  0
   14.1050  -14.4950   14.2060 C   0  0  0  0  0  0  0  0  0  0  0  0
   13.4250  -14.6810   12.9470 C   0  0  0  0  0  0  0  0  0  0  0  0
   14.1650  -15.0170   11.8100 C   0  0  0  0  0  0  0  0  0  0  0  0
   13.5380  -15.2020   10.5710 C   0  0  0  0  0  0  0  0  0  0  0  0
   14.2600  -15.5250    9.4900 F   0  0  0  0  0  0  0  0  0  0  0  0
   12.1450  -15.0410   10.4940 C   0  0  0  0  0  0  0  0  0  0  0  0
   11.2990  -15.1650    9.4140 N   0  0  0  0  0  0  0  0  0  0  0  0
   10.1010  -14.9110    9.8900 C   0  0  0  0  0  0  0  0  0  0  0  0
    8.8430  -14.9180    9.1150 C   0  0  0  0  0  0  0  0  0  0  0  0
   10.1300  -14.6290   11.2280 N   0  0  0  0  0  0  0  0  0  0  0  0
    8.9920  -14.3080   12.0590 C   0  0  0  0  0  0  0  0  0  0  0  0
    9.0750  -12.8780   12.5990 C   0  0  0  0  0  0  0  0  0  0  0  0
    8.8270  -15.3130   13.2020 C   0  0  0  0  0  0  0  0  0  0  0  0
   11.4360  -14.7060   11.6430 C   0  0  0  0  0  0  0  0  0  0  0  0
   12.0370  -14.5170   12.8870 C   0  0  0  0  0  0  0  0  0  0  0  0
   14.0240  -13.2500   14.7200 N   0  0  0  0  0  0  0  0  0  0  0  0
   12.4350  -10.9080   16.9420 N   0  0  0  0  0  0  0  0  0  0  0  0
   11.5640   -9.8810   16.8130 C   0  0  0  0  0  0  0  0  0  0  0  0
    9.6760   -8.2750   14.0110 C   0  0  0  0  0  0  0  0  0  0  0  0
    8.3540   -8.7720   13.4180 C   0  0  0  0  0  0  0  0  0  0  0  0
    6.1689  -10.4214   13.5720 H   0  0  0  0  0  0  0  0  0  0  0  0
    5.2352  -10.0193   12.0911 H   0  0  0  0  0  0  0  0  0  0  0  0
    7.0256   -9.8740   12.0911 H   0  0  0  0  0  0  0  0  0  0  0  0
    5.7274   -7.6826   12.3043 H   0  0  0  0  0  0  0  0  0  0  0  0
    5.2240   -8.2623   13.9418 H   0  0  0  0  0  0  0  0  0  0  0  0
    6.3567   -6.9093   15.3821 H   0  0  0  0  0  0  0  0  0  0  0  0
    6.8889   -8.6163   15.6401 H   0  0  0  0  0  0  0  0  0  0  0  0
    8.7037   -6.1679   15.3505 H   0  0  0  0  0  0  0  0  0  0  0  0
    8.3596   -7.0919   16.8649 H   0  0  0  0  0  0  0  0  0  0  0  0
   11.2199   -6.8106   15.3818 H   0  0  0  0  0  0  0  0  0  0  0  0
   10.6214   -7.2341   17.0411 H   0  0  0  0  0  0  0  0  0  0  0  0
   13.3524   -7.6707   14.9771 H   0  0  0  0  0  0  0  0  0  0  0  0
   15.0152   -9.5405   15.1881 H   0  0  0  0  0  0  0  0  0  0  0  0
   15.3890  -11.5850   17.0560 H   0  0  0  0  0  0  0  0  0  0  0  0
   15.9316  -16.0261   16.5406 H   0  0  0  0  0  0  0  0  0  0  0  0
   15.2555  -15.1379   11.8891 H   0  0  0  0  0  0  0  0  0  0  0  0
    7.9869  -14.9228    9.8057 H   0  0  0  0  0  0  0  0  0  0  0  0
    8.7978  -14.0201    8.4812 H   0  0  0  0  0  0  0  0  0  0  0  0
    8.8078  -15.8164    8.4812 H   0  0  0  0  0  0  0  0  0  0  0  0
    8.0987  -14.3756   11.4207 H   0  0  0  0  0  0  0  0  0  0  0  0
    9.0737  -12.9007   13.6988 H   0  0  0  0  0  0  0  0  0  0  0  0
   10.0021  -12.4049   12.2431 H   0  0  0  0  0  0  0  0  0  0  0  0
    8.2088  -12.3008   12.2431 H   0  0  0  0  0  0  0  0  0  0  0  0
    8.9129  -14.7896   14.1657 H   0  0  0  0  0  0  0  0  0  0  0  0
    7.8385  -15.7902   13.1308 H   0  0  0  0  0  0  0  0  0  0  0  0
    9.6110  -16.0813   13.1308 H   0  0  0  0  0  0  0  0  0  0  0  0
   11.4484  -14.2519   13.7777 H   0  0  0  0  0  0  0  0  0  0  0  0
   10.5742   -9.9816   17.2823 H   0  0  0  0  0  0  0  0  0  0  0  0
    9.9432   -7.3164   13.5424 H   0  0  0  0  0  0  0  0  0  0  0  0
   10.4540   -9.0278   13.8159 H   0  0  0  0  0  0  0  0  0  0  0  0
    8.4578   -8.8566   12.3262 H   0  0  0  0  0  0  0  0  0  0  0  0
    8.1172   -9.7522   13.8575 H   0  0  0  0  0  0  0  0  0  0  0  0
  1  2  1  0
  2  3  1  0
  3  4  1  0
  4  5  1  0
  5  6  1  0
  6  7  1  0
  7  8  1  0
  8  9  2  0
  9 10  1  0
 10 11  2  0
 11 12  1  0
 12 13  1  0
 13 14  2  0
 14 15  1  0
 15 16  2  0
 16 17  1  0
 16 18  1  0
 18 19  1  0
 19 20  2  0
 20 21  1  0
 21 22  1  0
 21 23  2  0
 23 24  1  0
 24 25  2  0
 25 26  1  0
 25 27  1  0
 27 28  1  0
 28 29  1  0
 28 30  1  0
 27 31  1  0
 31 32  2  0
 18 33  2  0
 11 34  1  0
 34 35  2  0
  6 36  1  0
 36 37  1  0
 37  3  1  0
 35  8  1  0
 33 13  1  0
 32 19  1  0
 31 23  1  0
  1 38  1  0
  1 39  1  0
  1 40  1  0
  2 41  1  0
  2 42  1  0
  4 43  1  0
  4 44  1  0
  5 45  1  0
  5 46  1  0
  7 47  1  0
  7 48  1  0
  9 49  1  0
 10 50  1  0
 12 51  1  0
 15 52  1  0
 20 53  1  0
 26 54  1  0
 26 55  1  0
 26 56  1  0
 28 57  1  0
 29 58  1  0
 29 59  1  0
 29 60  1  0
 30 61  1  0
 30 62  1  0
 30 63  1  0
 32 64  1  0
 35 65  1  0
 36 66  1  0
 36 67  1  0
 37 68  1  0
 37 69  1  0
M  END
>  <meeko>  (8) 
{"is_sidechain": [false], "free_energy": 0.013, "intermolecular_energy": 0.0, "internal_energy": -1.453}

$$$$
2mm3_Abemaciclib_out
     RDKit          3D

 69 73  0  0  0  0  0  0  0  0999 V2000
    7.3410  -10.4700   16.8130 C   0  0  0  0  0  0  0  0  0  0  0  0
    7.2270   -8.9560   16.8180 C   0  0  0  0  0  0  0  0  0  0  0  0
    8.2080   -8.3500   15.9190 N   0  0  0  0  0  0  0  0  0  0  0  0
    9.0910   -9.3730   15.3450 C   0  0  0  0  0  0  0  0  0  0  0  0
   10.1170   -8.7390   14.3990 C   0  0  0  0  0  0  0  0  0  0  0  0
    9.4490   -7.9810   13.3340 N   0  0  0  0  0  0  0  0  0  0  0  0
   10.4300   -7.3750   12.4370 C   0  0  0  0  0  0  0  0  0  0  0  0
   11.0490   -8.3910   11.5140 C   0  0  0  0  0  0  0  0  0  0  0  0
   10.2630   -9.1600   10.6630 C   0  0  0  0  0  0  0  0  0  0  0  0
   10.8640  -10.0890    9.8200 C   0  0  0  0  0  0  0  0  0  0  0  0
   12.2440  -10.2100    9.8690 C   0  0  0  0  0  0  0  0  0  0  0  0
   12.8420  -11.1610    9.0040 N   0  0  0  0  0  0  0  0  0  0  0  0
   13.0450  -12.5450    9.1140 C   0  0  0  0  0  0  0  0  0  0  0  0
   13.2110  -13.2230    7.9620 N   0  0  0  0  0  0  0  0  0  0  0  0
   13.4040  -14.5500    8.1050 C   0  0  0  0  0  0  0  0  0  0  0  0
   13.4350  -15.1940    9.3250 C   0  0  0  0  0  0  0  0  0  0  0  0
   13.6300  -16.5140    9.4160 F   0  0  0  0  0  0  0  0  0  0  0  0
   13.2520  -14.3880   10.4310 C   0  0  0  0  0  0  0  0  0  0  0  0
   13.2640  -14.9340   11.7660 C   0  0  0  0  0  0  0  0  0  0  0  0
   14.4420  -15.4890   12.2710 C   0  0  0  0  0  0  0  0  0  0  0  0
   14.4880  -16.0300   13.5620 C   0  0  0  0  0  0  0  0  0  0  0  0
   15.6250  -16.5570   14.0340 F   0  0  0  0  0  0  0  0  0  0  0  0
   13.3210  -16.0040   14.3430 C   0  0  0  0  0  0  0  0  0  0  0  0
   13.1020  -16.4610   15.6230 N   0  0  0  0  0  0  0  0  0  0  0  0
   11.8400  -16.1900   15.8700 C   0  0  0  0  0  0  0  0  0  0  0  0
   11.1210  -16.4890   17.1250 C   0  0  0  0  0  0  0  0  0  0  0  0
   11.2310  -15.5770   14.8110 N   0  0  0  0  0  0  0  0  0  0  0  0
    9.8530  -15.1450   14.7500 C   0  0  0  0  0  0  0  0  0  0  0  0
    9.1060  -15.8070   13.5890 C   0  0  0  0  0  0  0  0  0  0  0  0
    9.7440  -13.6190   14.6690 C   0  0  0  0  0  0  0  0  0  0  0  0
   12.1620  -15.4450   13.8120 C   0  0  0  0  0  0  0  0  0  0  0  0
   12.0920  -14.9000   12.5300 C   0  0  0  0  0  0  0  0  0  0  0  0
   13.0550  -13.0550   10.3610 N   0  0  0  0  0  0  0  0  0  0  0  0
   13.0400   -9.4820   10.6830 N   0  0  0  0  0  0  0  0  0  0  0  0
   12.4200   -8.5890   11.4860 C   0  0  0  0  0  0  0  0  0  0  0  0
    8.5660   -6.9590   13.9080 C   0  0  0  0  0  0  0  0  0  0  0  0
    7.5390   -7.5930   14.8520 C   0  0  0  0  0  0  0  0  0  0  0  0
    7.3688  -10.8390   17.8489 H   0  0  0  0  0  0  0  0  0  0  0  0
    6.4728  -10.9014   16.2932 H   0  0  0  0  0  0  0  0  0  0  0  0
    8.2640  -10.7665   16.2932 H   0  0  0  0  0  0  0  0  0  0  0  0
    6.2162   -8.6710   16.4909 H   0  0  0  0  0  0  0  0  0  0  0  0
    7.4199   -8.5951   17.8390 H   0  0  0  0  0  0  0  0  0  0  0  0
    9.6216   -9.8890   16.1588 H   0  0  0  0  0  0  0  0  0  0  0  0
    8.4788  -10.0864   14.7737 H   0  0  0  0  0  0  0  0  0  0  0  0
   10.7644   -8.0597   14.9729 H   0  0  0  0  0  0  0  0  0  0  0  0
   10.7133   -9.5407   13.9389 H   0  0  0  0  0  0  0  0  0  0  0  0
    9.9306   -6.6032   11.8329 H   0  0  0  0  0  0  0  0  0  0  0  0
   11.2315   -6.9398   13.0520 H   0  0  0  0  0  0  0  0  0  0  0  0
    9.1702   -9.0342   10.6564 H   0  0  0  0  0  0  0  0  0  0  0  0
   10.2636  -10.7076    9.1367 H   0  0  0  0  0  0  0  0  0  0  0  0
   13.1940  -10.7790    8.1320 H   0  0  0  0  0  0  0  0  0  0  0  0
   13.5449  -15.1540    7.1965 H   0  0  0  0  0  0  0  0  0  0  0  0
   15.3468  -15.5014   11.6456 H   0  0  0  0  0  0  0  0  0  0  0  0
   11.7562  -16.2249   17.9833 H   0  0  0  0  0  0  0  0  0  0  0  0
   10.1908  -15.9031   17.1632 H   0  0  0  0  0  0  0  0  0  0  0  0
   10.8805  -17.5617   17.1632 H   0  0  0  0  0  0  0  0  0  0  0  0
    9.3731  -15.4673   15.6859 H   0  0  0  0  0  0  0  0  0  0  0  0
    8.3385  -16.4871   13.9871 H   0  0  0  0  0  0  0  0  0  0  0  0
    8.6257  -15.0326   12.9729 H   0  0  0  0  0  0  0  0  0  0  0  0
    9.8171  -16.3769   12.9729 H   0  0  0  0  0  0  0  0  0  0  0  0
    9.7140  -13.1991   15.6853 H   0  0  0  0  0  0  0  0  0  0  0  0
   10.6157  -13.2171   14.1318 H   0  0  0  0  0  0  0  0  0  0  0  0
    8.8240  -13.3451   14.1318 H   0  0  0  0  0  0  0  0  0  0  0  0
   11.1608  -14.4646   12.1385 H   0  0  0  0  0  0  0  0  0  0  0  0
   13.0427   -7.9816   12.1593 H   0  0  0  0  0  0  0  0  0  0  0  0
    9.1723   -6.2334   14.4700 H   0  0  0  0  0  0  0  0  0  0  0  0
    8.0290   -6.4577   13.0892 H   0  0  0  0  0  0  0  0  0  0  0  0
    6.9257   -6.7991   15.3032 H   0  0  0  0  0  0  0  0  0  0  0  0
    6.9072   -8.2829   14.2733 H   0  0  0  0  0  0  0  0  0  0  0  0
  1  2  1  0
  2  3  1  0
  3  4  1  0
  4  5  1  0
  5  6  1  0
  6  7  1  0
  7  8  1  0
  8  9  2  0
  9 10  1  0
 10 11  2  0
 11 12  1  0
 12 13  1  0
 13 14  2  0
 14 15  1  0
 15 16  2  0
 16 17  1  0
 16 18  1  0
 18 19  1  0
 19 20  2  0
 20 21  1  0
 21 22  1  0
 21 23  2  0
 23 24  1  0
 24 25  2  0
 25 26  1  0
 25 27  1  0
 27 28  1  0
 28 29  1  0
 28 30  1  0
 27 31  1  0
 31 32  2  0
 18 33  2  0
 11 34  1  0
 34 35  2  0
  6 36  1  0
 36 37  1  0
 37  3  1  0
 35  8  1  0
 33 13  1  0
 32 19  1  0
 31 23  1  0
  1 38  1  0
  1 39  1  0
  1 40  1  0
  2 41  1  0
  2 42  1  0
  4 43  1  0
  4 44  1  0
  5 45  1  0
  5 46  1  0
  7 47  1  0
  7 48  1  0
  9 49  1  0
 10 50  1  0
 12 51  1  0
 15 52  1  0
 20 53  1  0
 26 54  1  0
 26 55  1  0
 26 56  1  0
 28 57  1  0
 29 58  1  0
 29 59  1  0
 29 60  1  0
 30 61  1  0
 30 62  1  0
 30 63  1  0
 32 64  1  0
 35 65  1  0
 36 66  1  0
 36 67  1  0
 37 68  1  0
 37 69  1  0
M  END
>  <meeko>  (9) 
{"is_sidechain": [false], "free_energy": 0.015, "intermolecular_energy": 0.0, "internal_energy": -1.45}

$$$$
